<?xml version="1.0" encoding="UTF-8"?>

<!-- generated on 06/17/20 07:39:47 by Eclipse SUMO duarouter Version v1_6_0+0521-bad558c3e9
<configuration xmlns:xsi="http://www.w3.org/2001/XMLSchema-instance" xsi:noNamespaceSchemaLocation="http://sumo.dlr.de/xsd/duarouterConfiguration.xsd">

    <input>
        <net-file value="C:\Users\spraychamber\PycharmProjects\campus-bryce-intersection\sim_files\net\net.net.xml"/>
        <route-files value="C:\Users\spraychamber\PycharmProjects\campus-bryce-intersection\sim_files\flow_routes\trips.trips.xml"/>
    </input>

    <output>
        <output-file value="C:\Users\spraychamber\PycharmProjects\campus-bryce-intersection\sim_files\flow_routes\trips.trips.xml.tmp"/>
        <write-trips value="true"/>
    </output>

    <time>
        <begin value="0"/>
        <end value="3600"/>
    </time>

    <report>
        <no-warnings value="true"/>
        <ignore-errors value="true"/>
        <no-step-log value="true"/>
    </report>

</configuration>
-->

<routes xmlns:xsi="http://www.w3.org/2001/XMLSchema-instance" xsi:noNamespaceSchemaLocation="http://sumo.dlr.de/xsd/routes_file.xsd">
    <trip id="0" type="vehDist" depart="0.00" departSpeed="max" from="8873021#1.1090" to="434543206"/>
    <trip id="1" type="vehDist" depart="0.30" departSpeed="max" from="8873021#1.1090" to="-434396594"/>
    <trip id="2" type="vehDist" depart="0.60" departSpeed="max" from="8873021#1.1090" to="-434396594"/>
    <trip id="3" type="vehDist" depart="0.90" departSpeed="max" from="8873021#1.1090" to="434543206"/>
    <trip id="4" type="vehDist" depart="1.20" departSpeed="max" from="8873021#1.1090" to="-516481997#1.104"/>
    <trip id="5" type="vehDist" depart="1.50" departSpeed="max" from="8873021#1.1090" to="434543206"/>
    <trip id="6" type="vehDist" depart="1.80" departSpeed="max" from="434950672#1" to="8873021#1"/>
    <trip id="7" type="vehDist" depart="2.10" departSpeed="max" from="8873021#1.1090" to="434543206"/>
    <trip id="8" type="vehDist" depart="2.40" departSpeed="max" from="8873021#1.1090" to="434543206"/>
    <trip id="9" type="vehDist" depart="2.70" departSpeed="max" from="8873021#1.1090" to="-434396594"/>
    <trip id="10" type="vehDist" depart="3.00" departSpeed="max" from="434396594" to="8873021#1"/>
    <trip id="11" type="vehDist" depart="3.30" departSpeed="max" from="434396594" to="8873021#1"/>
    <trip id="12" type="vehDist" depart="3.60" departSpeed="max" from="8873021#1.1090" to="434543206"/>
    <trip id="13" type="vehDist" depart="3.90" departSpeed="max" from="434396594" to="8873021#1"/>
    <trip id="14" type="vehDist" depart="4.20" departSpeed="max" from="8873021#1.1090" to="-516481997#1.104"/>
    <trip id="15" type="vehDist" depart="4.50" departSpeed="max" from="8873021#1.1090" to="-516481997#1.104"/>
    <trip id="16" type="vehDist" depart="4.80" departSpeed="max" from="434950672#1" to="8873021#1"/>
    <trip id="17" type="vehDist" depart="5.10" departSpeed="max" from="8873021#1.1090" to="-516481997#1.104"/>
    <trip id="18" type="vehDist" depart="5.40" departSpeed="max" from="8873021#1.1090" to="-516481997#1.104"/>
    <trip id="19" type="vehDist" depart="5.70" departSpeed="max" from="8873021#1.1090" to="-516481997#1.104"/>
    <trip id="20" type="vehDist" depart="6.00" departSpeed="max" from="-434543206" to="8873021#1"/>
    <trip id="21" type="vehDist" depart="6.30" departSpeed="max" from="8873021#1.1090" to="-516481997#1.104"/>
    <trip id="22" type="vehDist" depart="6.60" departSpeed="max" from="434950672#1" to="8873021#1"/>
    <trip id="23" type="vehDist" depart="6.90" departSpeed="max" from="8873021#1.1090" to="-516481997#1.104"/>
    <trip id="24" type="vehDist" depart="7.20" departSpeed="max" from="8873021#1.1090" to="-516481997#1.104"/>
    <trip id="25" type="vehDist" depart="7.50" departSpeed="max" from="8873021#1.1090" to="-516481997#1.104"/>
    <trip id="26" type="vehDist" depart="7.80" departSpeed="max" from="-434543206" to="8873021#1"/>
    <trip id="27" type="vehDist" depart="8.10" departSpeed="max" from="-434543206" to="8873021#1"/>
    <trip id="28" type="vehDist" depart="8.40" departSpeed="max" from="8873021#1.1090" to="-434396594"/>
    <trip id="29" type="vehDist" depart="8.70" departSpeed="max" from="434396594" to="8873021#1"/>
    <trip id="30" type="vehDist" depart="9.00" departSpeed="max" from="434950672#1" to="8873021#1"/>
    <trip id="31" type="vehDist" depart="9.30" departSpeed="max" from="8873021#1.1090" to="434543206"/>
    <trip id="32" type="vehDist" depart="9.60" departSpeed="max" from="434396594" to="8873021#1"/>
    <trip id="33" type="vehDist" depart="9.90" departSpeed="max" from="8873021#1.1090" to="-434396594"/>
    <trip id="34" type="vehDist" depart="10.20" departSpeed="max" from="8873021#1.1090" to="-516481997#1.104"/>
    <trip id="35" type="vehDist" depart="10.50" departSpeed="max" from="434950672#1" to="8873021#1"/>
    <trip id="36" type="vehDist" depart="10.80" departSpeed="max" from="8873021#1.1090" to="-516481997#1.104"/>
    <trip id="37" type="vehDist" depart="11.10" departSpeed="max" from="8873021#1.1090" to="434543206"/>
    <trip id="38" type="vehDist" depart="11.40" departSpeed="max" from="8873021#1.1090" to="-434396594"/>
    <trip id="39" type="vehDist" depart="11.70" departSpeed="max" from="8873021#1.1090" to="-516481997#1.104"/>
    <trip id="40" type="vehDist" depart="12.00" departSpeed="max" from="434396594" to="8873021#1"/>
    <trip id="41" type="vehDist" depart="12.30" departSpeed="max" from="434950672#1" to="8873021#1"/>
    <trip id="42" type="vehDist" depart="12.60" departSpeed="max" from="8873021#1.1090" to="-516481997#1.104"/>
    <trip id="43" type="vehDist" depart="12.90" departSpeed="max" from="434950672#1" to="8873021#1"/>
    <trip id="44" type="vehDist" depart="13.20" departSpeed="max" from="434396594" to="8873021#1"/>
    <trip id="45" type="vehDist" depart="13.50" departSpeed="max" from="434950672#1" to="8873021#1"/>
    <trip id="46" type="vehDist" depart="13.80" departSpeed="max" from="8873021#1.1090" to="434543206"/>
    <trip id="47" type="vehDist" depart="14.10" departSpeed="max" from="434950672#1" to="8873021#1"/>
    <trip id="48" type="vehDist" depart="14.40" departSpeed="max" from="434950672#1" to="8873021#1"/>
    <trip id="49" type="vehDist" depart="14.70" departSpeed="max" from="-434543206" to="8873021#1"/>
    <trip id="50" type="vehDist" depart="15.00" departSpeed="max" from="8873021#1.1090" to="-516481997#1.104"/>
    <trip id="51" type="vehDist" depart="15.30" departSpeed="max" from="434950672#1" to="8873021#1"/>
    <trip id="52" type="vehDist" depart="15.60" departSpeed="max" from="434396594" to="8873021#1"/>
    <trip id="53" type="vehDist" depart="15.90" departSpeed="max" from="8873021#1.1090" to="-516481997#1.104"/>
    <trip id="54" type="vehDist" depart="16.20" departSpeed="max" from="434396594" to="8873021#1"/>
    <trip id="55" type="vehDist" depart="16.50" departSpeed="max" from="434396594" to="8873021#1"/>
    <trip id="56" type="vehDist" depart="16.80" departSpeed="max" from="8873021#1.1090" to="434543206"/>
    <trip id="57" type="vehDist" depart="17.10" departSpeed="max" from="434950672#1" to="8873021#1"/>
    <trip id="58" type="vehDist" depart="17.40" departSpeed="max" from="8873021#1.1090" to="-516481997#1.104"/>
    <trip id="59" type="vehDist" depart="17.70" departSpeed="max" from="434950672#1" to="8873021#1"/>
    <trip id="60" type="vehDist" depart="18.00" departSpeed="max" from="8873021#1.1090" to="-516481997#1.104"/>
    <trip id="61" type="vehDist" depart="18.30" departSpeed="max" from="434950672#1" to="8873021#1"/>
    <trip id="62" type="vehDist" depart="18.60" departSpeed="max" from="8873021#1.1090" to="-434396594"/>
    <trip id="63" type="vehDist" depart="18.90" departSpeed="max" from="-434543206" to="8873021#1"/>
    <trip id="64" type="vehDist" depart="19.20" departSpeed="max" from="8873021#1.1090" to="-516481997#1.104"/>
    <trip id="65" type="vehDist" depart="19.50" departSpeed="max" from="-434543206" to="8873021#1"/>
    <trip id="66" type="vehDist" depart="19.80" departSpeed="max" from="8873021#1.1090" to="-516481997#1.104"/>
    <trip id="67" type="vehDist" depart="20.10" departSpeed="max" from="8873021#1.1090" to="434543206"/>
    <trip id="68" type="vehDist" depart="20.40" departSpeed="max" from="434396594" to="8873021#1"/>
    <trip id="69" type="vehDist" depart="20.70" departSpeed="max" from="8873021#1.1090" to="-516481997#1.104"/>
    <trip id="70" type="vehDist" depart="21.00" departSpeed="max" from="-434543206" to="8873021#1"/>
    <trip id="71" type="vehDist" depart="21.30" departSpeed="max" from="-434543206" to="8873021#1"/>
    <trip id="72" type="vehDist" depart="21.60" departSpeed="max" from="434396594" to="8873021#1"/>
    <trip id="73" type="vehDist" depart="21.90" departSpeed="max" from="8873021#1.1090" to="-516481997#1.104"/>
    <trip id="74" type="vehDist" depart="22.20" departSpeed="max" from="8873021#1.1090" to="-434396594"/>
    <trip id="75" type="vehDist" depart="22.50" departSpeed="max" from="434396594" to="8873021#1"/>
    <trip id="76" type="vehDist" depart="22.80" departSpeed="max" from="8873021#1.1090" to="-516481997#1.104"/>
    <trip id="77" type="vehDist" depart="23.10" departSpeed="max" from="434396594" to="8873021#1"/>
    <trip id="78" type="vehDist" depart="23.40" departSpeed="max" from="8873021#1.1090" to="-516481997#1.104"/>
    <trip id="79" type="vehDist" depart="23.70" departSpeed="max" from="8873021#1.1090" to="-516481997#1.104"/>
    <trip id="80" type="vehDist" depart="24.00" departSpeed="max" from="8873021#1.1090" to="-434396594"/>
    <trip id="81" type="vehDist" depart="24.30" departSpeed="max" from="8873021#1.1090" to="-516481997#1.104"/>
    <trip id="82" type="vehDist" depart="24.60" departSpeed="max" from="8873021#1.1090" to="-516481997#1.104"/>
    <trip id="83" type="vehDist" depart="24.90" departSpeed="max" from="8873021#1.1090" to="-516481997#1.104"/>
    <trip id="84" type="vehDist" depart="25.20" departSpeed="max" from="-434543206" to="8873021#1"/>
    <trip id="85" type="vehDist" depart="25.50" departSpeed="max" from="434950672#1" to="8873021#1"/>
    <trip id="86" type="vehDist" depart="25.80" departSpeed="max" from="8873021#1.1090" to="434543206"/>
    <trip id="87" type="vehDist" depart="26.10" departSpeed="max" from="434396594" to="8873021#1"/>
    <trip id="88" type="vehDist" depart="26.40" departSpeed="max" from="8873021#1.1090" to="-516481997#1.104"/>
    <trip id="89" type="vehDist" depart="26.70" departSpeed="max" from="8873021#1.1090" to="434543206"/>
    <trip id="90" type="vehDist" depart="27.00" departSpeed="max" from="8873021#1.1090" to="434543206"/>
    <trip id="91" type="vehDist" depart="27.30" departSpeed="max" from="434950672#1" to="8873021#1"/>
    <trip id="92" type="vehDist" depart="27.60" departSpeed="max" from="8873021#1.1090" to="-516481997#1.104"/>
    <trip id="93" type="vehDist" depart="27.90" departSpeed="max" from="8873021#1.1090" to="-516481997#1.104"/>
    <trip id="94" type="vehDist" depart="28.20" departSpeed="max" from="8873021#1.1090" to="-434396594"/>
    <trip id="95" type="vehDist" depart="28.50" departSpeed="max" from="434396594" to="8873021#1"/>
    <trip id="96" type="vehDist" depart="28.80" departSpeed="max" from="434396594" to="8873021#1"/>
    <trip id="97" type="vehDist" depart="29.10" departSpeed="max" from="434950672#1" to="8873021#1"/>
    <trip id="98" type="vehDist" depart="29.40" departSpeed="max" from="434950672#1" to="8873021#1"/>
    <trip id="99" type="vehDist" depart="29.70" departSpeed="max" from="8873021#1.1090" to="434543206"/>
    <trip id="100" type="vehDist" depart="30.00" departSpeed="max" from="8873021#1.1090" to="-516481997#1.104"/>
    <trip id="101" type="vehDist" depart="30.30" departSpeed="max" from="8873021#1.1090" to="-516481997#1.104"/>
    <trip id="102" type="vehDist" depart="30.60" departSpeed="max" from="8873021#1.1090" to="-516481997#1.104"/>
    <trip id="103" type="vehDist" depart="30.90" departSpeed="max" from="8873021#1.1090" to="-434396594"/>
    <trip id="104" type="vehDist" depart="31.20" departSpeed="max" from="434950672#1" to="8873021#1"/>
    <trip id="105" type="vehDist" depart="31.50" departSpeed="max" from="434950672#1" to="8873021#1"/>
    <trip id="106" type="vehDist" depart="31.80" departSpeed="max" from="434950672#1" to="8873021#1"/>
    <trip id="107" type="vehDist" depart="32.10" departSpeed="max" from="8873021#1.1090" to="-516481997#1.104"/>
    <trip id="108" type="vehDist" depart="32.40" departSpeed="max" from="434950672#1" to="8873021#1"/>
    <trip id="109" type="vehDist" depart="32.70" departSpeed="max" from="434950672#1" to="8873021#1"/>
    <trip id="110" type="vehDist" depart="33.00" departSpeed="max" from="8873021#1.1090" to="-516481997#1.104"/>
    <trip id="111" type="vehDist" depart="33.30" departSpeed="max" from="8873021#1.1090" to="-434396594"/>
    <trip id="112" type="vehDist" depart="33.60" departSpeed="max" from="8873021#1.1090" to="-516481997#1.104"/>
    <trip id="113" type="vehDist" depart="33.90" departSpeed="max" from="8873021#1.1090" to="-434396594"/>
    <trip id="114" type="vehDist" depart="34.20" departSpeed="max" from="8873021#1.1090" to="434543206"/>
    <trip id="115" type="vehDist" depart="34.50" departSpeed="max" from="-434543206" to="8873021#1"/>
    <trip id="116" type="vehDist" depart="34.80" departSpeed="max" from="8873021#1.1090" to="434543206"/>
    <trip id="117" type="vehDist" depart="35.10" departSpeed="max" from="-434543206" to="8873021#1"/>
    <trip id="118" type="vehDist" depart="35.40" departSpeed="max" from="8873021#1.1090" to="-516481997#1.104"/>
    <trip id="119" type="vehDist" depart="35.70" departSpeed="max" from="-434543206" to="8873021#1"/>
    <trip id="120" type="vehDist" depart="36.00" departSpeed="max" from="434950672#1" to="8873021#1"/>
    <trip id="121" type="vehDist" depart="36.30" departSpeed="max" from="8873021#1.1090" to="-516481997#1.104"/>
    <trip id="122" type="vehDist" depart="36.60" departSpeed="max" from="434396594" to="8873021#1"/>
    <trip id="123" type="vehDist" depart="36.90" departSpeed="max" from="434950672#1" to="8873021#1"/>
    <trip id="124" type="vehDist" depart="37.20" departSpeed="max" from="434396594" to="8873021#1"/>
    <trip id="125" type="vehDist" depart="37.50" departSpeed="max" from="8873021#1.1090" to="-434396594"/>
    <trip id="126" type="vehDist" depart="37.80" departSpeed="max" from="8873021#1.1090" to="-516481997#1.104"/>
    <trip id="127" type="vehDist" depart="38.10" departSpeed="max" from="8873021#1.1090" to="-516481997#1.104"/>
    <trip id="128" type="vehDist" depart="38.40" departSpeed="max" from="434396594" to="8873021#1"/>
    <trip id="129" type="vehDist" depart="38.70" departSpeed="max" from="434950672#1" to="8873021#1"/>
    <trip id="130" type="vehDist" depart="39.00" departSpeed="max" from="8873021#1.1090" to="-516481997#1.104"/>
    <trip id="131" type="vehDist" depart="39.30" departSpeed="max" from="-434543206" to="8873021#1"/>
    <trip id="132" type="vehDist" depart="39.60" departSpeed="max" from="-434543206" to="8873021#1"/>
    <trip id="133" type="vehDist" depart="39.90" departSpeed="max" from="434950672#1" to="8873021#1"/>
    <trip id="134" type="vehDist" depart="40.20" departSpeed="max" from="8873021#1.1090" to="434543206"/>
    <trip id="135" type="vehDist" depart="40.50" departSpeed="max" from="434950672#1" to="8873021#1"/>
    <trip id="136" type="vehDist" depart="40.80" departSpeed="max" from="8873021#1.1090" to="-516481997#1.104"/>
    <trip id="137" type="vehDist" depart="41.10" departSpeed="max" from="8873021#1.1090" to="-516481997#1.104"/>
    <trip id="138" type="vehDist" depart="41.40" departSpeed="max" from="8873021#1.1090" to="-516481997#1.104"/>
    <trip id="139" type="vehDist" depart="41.70" departSpeed="max" from="434950672#1" to="8873021#1"/>
    <trip id="140" type="vehDist" depart="42.00" departSpeed="max" from="434950672#1" to="8873021#1"/>
    <trip id="141" type="vehDist" depart="42.30" departSpeed="max" from="8873021#1.1090" to="-516481997#1.104"/>
    <trip id="142" type="vehDist" depart="42.60" departSpeed="max" from="8873021#1.1090" to="-516481997#1.104"/>
    <trip id="143" type="vehDist" depart="42.90" departSpeed="max" from="8873021#1.1090" to="-434396594"/>
    <trip id="144" type="vehDist" depart="43.20" departSpeed="max" from="8873021#1.1090" to="-516481997#1.104"/>
    <trip id="145" type="vehDist" depart="43.50" departSpeed="max" from="8873021#1.1090" to="434543206"/>
    <trip id="146" type="vehDist" depart="43.80" departSpeed="max" from="8873021#1.1090" to="-516481997#1.104"/>
    <trip id="147" type="vehDist" depart="44.10" departSpeed="max" from="8873021#1.1090" to="-516481997#1.104"/>
    <trip id="148" type="vehDist" depart="44.40" departSpeed="max" from="8873021#1.1090" to="-434396594"/>
    <trip id="149" type="vehDist" depart="44.70" departSpeed="max" from="8873021#1.1090" to="434543206"/>
    <trip id="150" type="vehDist" depart="45.00" departSpeed="max" from="8873021#1.1090" to="-516481997#1.104"/>
    <trip id="151" type="vehDist" depart="45.30" departSpeed="max" from="434950672#1" to="8873021#1"/>
    <trip id="152" type="vehDist" depart="45.60" departSpeed="max" from="8873021#1.1090" to="-516481997#1.104"/>
    <trip id="153" type="vehDist" depart="45.90" departSpeed="max" from="8873021#1.1090" to="-516481997#1.104"/>
    <trip id="154" type="vehDist" depart="46.20" departSpeed="max" from="8873021#1.1090" to="434543206"/>
    <trip id="155" type="vehDist" depart="46.50" departSpeed="max" from="434950672#1" to="8873021#1"/>
    <trip id="156" type="vehDist" depart="46.80" departSpeed="max" from="434950672#1" to="8873021#1"/>
    <trip id="157" type="vehDist" depart="47.10" departSpeed="max" from="8873021#1.1090" to="-434396594"/>
    <trip id="158" type="vehDist" depart="47.40" departSpeed="max" from="8873021#1.1090" to="-516481997#1.104"/>
    <trip id="159" type="vehDist" depart="47.70" departSpeed="max" from="8873021#1.1090" to="434543206"/>
    <trip id="160" type="vehDist" depart="48.00" departSpeed="max" from="8873021#1.1090" to="-516481997#1.104"/>
    <trip id="161" type="vehDist" depart="48.30" departSpeed="max" from="-434543206" to="8873021#1"/>
    <trip id="162" type="vehDist" depart="48.60" departSpeed="max" from="8873021#1.1090" to="434543206"/>
    <trip id="163" type="vehDist" depart="48.90" departSpeed="max" from="8873021#1.1090" to="-516481997#1.104"/>
    <trip id="164" type="vehDist" depart="49.20" departSpeed="max" from="-434543206" to="8873021#1"/>
    <trip id="165" type="vehDist" depart="49.50" departSpeed="max" from="8873021#1.1090" to="-516481997#1.104"/>
    <trip id="166" type="vehDist" depart="49.80" departSpeed="max" from="434396594" to="8873021#1"/>
    <trip id="167" type="vehDist" depart="50.10" departSpeed="max" from="8873021#1.1090" to="-516481997#1.104"/>
    <trip id="168" type="vehDist" depart="50.40" departSpeed="max" from="434396594" to="8873021#1"/>
    <trip id="169" type="vehDist" depart="50.70" departSpeed="max" from="8873021#1.1090" to="434543206"/>
    <trip id="170" type="vehDist" depart="51.00" departSpeed="max" from="8873021#1.1090" to="434543206"/>
    <trip id="171" type="vehDist" depart="51.30" departSpeed="max" from="8873021#1.1090" to="-516481997#1.104"/>
    <trip id="172" type="vehDist" depart="51.60" departSpeed="max" from="434950672#1" to="8873021#1"/>
    <trip id="173" type="vehDist" depart="51.90" departSpeed="max" from="-434543206" to="8873021#1"/>
    <trip id="174" type="vehDist" depart="52.20" departSpeed="max" from="8873021#1.1090" to="-516481997#1.104"/>
    <trip id="175" type="vehDist" depart="52.50" departSpeed="max" from="8873021#1.1090" to="-516481997#1.104"/>
    <trip id="176" type="vehDist" depart="52.80" departSpeed="max" from="434396594" to="8873021#1"/>
    <trip id="177" type="vehDist" depart="53.10" departSpeed="max" from="8873021#1.1090" to="-516481997#1.104"/>
    <trip id="178" type="vehDist" depart="53.40" departSpeed="max" from="8873021#1.1090" to="-516481997#1.104"/>
    <trip id="179" type="vehDist" depart="53.70" departSpeed="max" from="434396594" to="8873021#1"/>
    <trip id="180" type="vehDist" depart="54.00" departSpeed="max" from="434950672#1" to="8873021#1"/>
    <trip id="181" type="vehDist" depart="54.30" departSpeed="max" from="434950672#1" to="8873021#1"/>
    <trip id="182" type="vehDist" depart="54.60" departSpeed="max" from="434950672#1" to="8873021#1"/>
    <trip id="183" type="vehDist" depart="54.90" departSpeed="max" from="8873021#1.1090" to="-434396594"/>
    <trip id="184" type="vehDist" depart="55.20" departSpeed="max" from="8873021#1.1090" to="434543206"/>
    <trip id="185" type="vehDist" depart="55.50" departSpeed="max" from="8873021#1.1090" to="-516481997#1.104"/>
    <trip id="186" type="vehDist" depart="55.80" departSpeed="max" from="434950672#1" to="8873021#1"/>
    <trip id="187" type="vehDist" depart="56.10" departSpeed="max" from="8873021#1.1090" to="-516481997#1.104"/>
    <trip id="188" type="vehDist" depart="56.40" departSpeed="max" from="434950672#1" to="8873021#1"/>
    <trip id="189" type="vehDist" depart="56.70" departSpeed="max" from="8873021#1.1090" to="-516481997#1.104"/>
    <trip id="190" type="vehDist" depart="57.00" departSpeed="max" from="8873021#1.1090" to="-516481997#1.104"/>
    <trip id="191" type="vehDist" depart="57.30" departSpeed="max" from="434950672#1" to="8873021#1"/>
    <trip id="192" type="vehDist" depart="57.60" departSpeed="max" from="434950672#1" to="8873021#1"/>
    <trip id="193" type="vehDist" depart="57.90" departSpeed="max" from="8873021#1.1090" to="-434396594"/>
    <trip id="194" type="vehDist" depart="58.20" departSpeed="max" from="8873021#1.1090" to="-516481997#1.104"/>
    <trip id="195" type="vehDist" depart="58.50" departSpeed="max" from="8873021#1.1090" to="-516481997#1.104"/>
    <trip id="196" type="vehDist" depart="58.80" departSpeed="max" from="-434543206" to="8873021#1"/>
    <trip id="197" type="vehDist" depart="59.10" departSpeed="max" from="434950672#1" to="8873021#1"/>
    <trip id="198" type="vehDist" depart="59.40" departSpeed="max" from="8873021#1.1090" to="434543206"/>
    <trip id="199" type="vehDist" depart="59.70" departSpeed="max" from="434396594" to="8873021#1"/>
    <trip id="200" type="vehDist" depart="60.00" departSpeed="max" from="-434543206" to="8873021#1"/>
    <trip id="201" type="vehDist" depart="60.30" departSpeed="max" from="8873021#1.1090" to="434543206"/>
    <trip id="202" type="vehDist" depart="60.60" departSpeed="max" from="434396594" to="8873021#1"/>
    <trip id="203" type="vehDist" depart="60.90" departSpeed="max" from="8873021#1.1090" to="-516481997#1.104"/>
    <trip id="204" type="vehDist" depart="61.20" departSpeed="max" from="8873021#1.1090" to="434543206"/>
    <trip id="205" type="vehDist" depart="61.50" departSpeed="max" from="434950672#1" to="8873021#1"/>
    <trip id="206" type="vehDist" depart="61.80" departSpeed="max" from="434396594" to="8873021#1"/>
    <trip id="207" type="vehDist" depart="62.10" departSpeed="max" from="434950672#1" to="8873021#1"/>
    <trip id="208" type="vehDist" depart="62.40" departSpeed="max" from="434950672#1" to="8873021#1"/>
    <trip id="209" type="vehDist" depart="62.70" departSpeed="max" from="8873021#1.1090" to="-434396594"/>
    <trip id="210" type="vehDist" depart="63.00" departSpeed="max" from="434396594" to="8873021#1"/>
    <trip id="211" type="vehDist" depart="63.30" departSpeed="max" from="434950672#1" to="8873021#1"/>
    <trip id="212" type="vehDist" depart="63.60" departSpeed="max" from="434950672#1" to="8873021#1"/>
    <trip id="213" type="vehDist" depart="63.90" departSpeed="max" from="8873021#1.1090" to="-516481997#1.104"/>
    <trip id="214" type="vehDist" depart="64.20" departSpeed="max" from="8873021#1.1090" to="-516481997#1.104"/>
    <trip id="215" type="vehDist" depart="64.50" departSpeed="max" from="8873021#1.1090" to="-434396594"/>
    <trip id="216" type="vehDist" depart="64.80" departSpeed="max" from="434950672#1" to="8873021#1"/>
    <trip id="217" type="vehDist" depart="65.10" departSpeed="max" from="8873021#1.1090" to="434543206"/>
    <trip id="218" type="vehDist" depart="65.40" departSpeed="max" from="-434543206" to="8873021#1"/>
    <trip id="219" type="vehDist" depart="65.70" departSpeed="max" from="434950672#1" to="8873021#1"/>
    <trip id="220" type="vehDist" depart="66.00" departSpeed="max" from="-434543206" to="8873021#1"/>
    <trip id="221" type="vehDist" depart="66.30" departSpeed="max" from="-434543206" to="8873021#1"/>
    <trip id="222" type="vehDist" depart="66.60" departSpeed="max" from="8873021#1.1090" to="-516481997#1.104"/>
    <trip id="223" type="vehDist" depart="66.90" departSpeed="max" from="8873021#1.1090" to="-516481997#1.104"/>
    <trip id="224" type="vehDist" depart="67.20" departSpeed="max" from="8873021#1.1090" to="-434396594"/>
    <trip id="225" type="vehDist" depart="67.50" departSpeed="max" from="434950672#1" to="8873021#1"/>
    <trip id="226" type="vehDist" depart="67.80" departSpeed="max" from="8873021#1.1090" to="-516481997#1.104"/>
    <trip id="227" type="vehDist" depart="68.10" departSpeed="max" from="8873021#1.1090" to="-516481997#1.104"/>
    <trip id="228" type="vehDist" depart="68.40" departSpeed="max" from="-434543206" to="8873021#1"/>
    <trip id="229" type="vehDist" depart="68.70" departSpeed="max" from="8873021#1.1090" to="-516481997#1.104"/>
    <trip id="230" type="vehDist" depart="69.00" departSpeed="max" from="-434543206" to="8873021#1"/>
    <trip id="231" type="vehDist" depart="69.30" departSpeed="max" from="-434543206" to="8873021#1"/>
    <trip id="232" type="vehDist" depart="69.60" departSpeed="max" from="-434543206" to="8873021#1"/>
    <trip id="233" type="vehDist" depart="69.90" departSpeed="max" from="8873021#1.1090" to="-516481997#1.104"/>
    <trip id="234" type="vehDist" depart="70.20" departSpeed="max" from="8873021#1.1090" to="-516481997#1.104"/>
    <trip id="235" type="vehDist" depart="70.50" departSpeed="max" from="8873021#1.1090" to="-516481997#1.104"/>
    <trip id="236" type="vehDist" depart="70.80" departSpeed="max" from="8873021#1.1090" to="-434396594"/>
    <trip id="237" type="vehDist" depart="71.10" departSpeed="max" from="8873021#1.1090" to="-434396594"/>
    <trip id="238" type="vehDist" depart="71.40" departSpeed="max" from="8873021#1.1090" to="-516481997#1.104"/>
    <trip id="239" type="vehDist" depart="71.70" departSpeed="max" from="8873021#1.1090" to="-434396594"/>
    <trip id="240" type="vehDist" depart="72.00" departSpeed="max" from="434396594" to="8873021#1"/>
    <trip id="241" type="vehDist" depart="72.30" departSpeed="max" from="434950672#1" to="8873021#1"/>
    <trip id="242" type="vehDist" depart="72.60" departSpeed="max" from="8873021#1.1090" to="-516481997#1.104"/>
    <trip id="243" type="vehDist" depart="72.90" departSpeed="max" from="8873021#1.1090" to="-434396594"/>
    <trip id="244" type="vehDist" depart="73.20" departSpeed="max" from="8873021#1.1090" to="-434396594"/>
    <trip id="245" type="vehDist" depart="73.50" departSpeed="max" from="-434543206" to="8873021#1"/>
    <trip id="246" type="vehDist" depart="73.80" departSpeed="max" from="8873021#1.1090" to="-516481997#1.104"/>
    <trip id="247" type="vehDist" depart="74.10" departSpeed="max" from="-434543206" to="8873021#1"/>
    <trip id="248" type="vehDist" depart="74.40" departSpeed="max" from="434950672#1" to="8873021#1"/>
    <trip id="249" type="vehDist" depart="74.70" departSpeed="max" from="434950672#1" to="8873021#1"/>
    <trip id="250" type="vehDist" depart="75.00" departSpeed="max" from="8873021#1.1090" to="434543206"/>
    <trip id="251" type="vehDist" depart="75.30" departSpeed="max" from="8873021#1.1090" to="-516481997#1.104"/>
    <trip id="252" type="vehDist" depart="75.60" departSpeed="max" from="8873021#1.1090" to="-516481997#1.104"/>
    <trip id="253" type="vehDist" depart="75.90" departSpeed="max" from="8873021#1.1090" to="-516481997#1.104"/>
    <trip id="254" type="vehDist" depart="76.20" departSpeed="max" from="434950672#1" to="8873021#1"/>
    <trip id="255" type="vehDist" depart="76.50" departSpeed="max" from="8873021#1.1090" to="-516481997#1.104"/>
    <trip id="256" type="vehDist" depart="76.80" departSpeed="max" from="8873021#1.1090" to="-516481997#1.104"/>
    <trip id="257" type="vehDist" depart="77.10" departSpeed="max" from="8873021#1.1090" to="-434396594"/>
    <trip id="258" type="vehDist" depart="77.40" departSpeed="max" from="8873021#1.1090" to="-516481997#1.104"/>
    <trip id="259" type="vehDist" depart="77.70" departSpeed="max" from="8873021#1.1090" to="-434396594"/>
    <trip id="260" type="vehDist" depart="78.00" departSpeed="max" from="-434543206" to="8873021#1"/>
    <trip id="261" type="vehDist" depart="78.30" departSpeed="max" from="8873021#1.1090" to="-516481997#1.104"/>
    <trip id="262" type="vehDist" depart="78.60" departSpeed="max" from="-434543206" to="8873021#1"/>
    <trip id="263" type="vehDist" depart="78.90" departSpeed="max" from="8873021#1.1090" to="-516481997#1.104"/>
    <trip id="264" type="vehDist" depart="79.20" departSpeed="max" from="434396594" to="8873021#1"/>
    <trip id="265" type="vehDist" depart="79.50" departSpeed="max" from="434950672#1" to="8873021#1"/>
    <trip id="266" type="vehDist" depart="79.80" departSpeed="max" from="8873021#1.1090" to="-434396594"/>
    <trip id="267" type="vehDist" depart="80.10" departSpeed="max" from="8873021#1.1090" to="-516481997#1.104"/>
    <trip id="268" type="vehDist" depart="80.40" departSpeed="max" from="8873021#1.1090" to="-516481997#1.104"/>
    <trip id="269" type="vehDist" depart="80.70" departSpeed="max" from="8873021#1.1090" to="-516481997#1.104"/>
    <trip id="270" type="vehDist" depart="81.00" departSpeed="max" from="434950672#1" to="8873021#1"/>