<?xml version="1.0" encoding="UTF-8"?>

<!-- generated on Mon 15 Jun 2020 02:51:01 PM CDT by Eclipse SUMO netedit Version UNKNOWN
<configuration xmlns:xsi="http://www.w3.org/2001/XMLSchema-instance" xsi:noNamespaceSchemaLocation="http://sumo.dlr.de/xsd/netconvertConfiguration.xsd">

    <input>
        <sumo-net-file value="/home/max/Documents/campus-bryce-intersection/campus-bryce-intersection/sim_files/net/net.net.xml"/>
    </input>

    <output>
        <output-file value="/home/max/Documents/campus-bryce-intersection/campus-bryce-intersection/sim_files/net/net.net.xml"/>
        <output.street-names value="true"/>
    </output>

    <processing>
        <geometry.min-radius.fix.railways value="false"/>
        <geometry.max-grade.fix value="false"/>
        <offset.disable-normalization value="true"/>
        <lefthand value="false"/>
    </processing>

    <junctions>
        <no-turnarounds value="true"/>
        <junctions.corner-detail value="5"/>
        <junctions.limit-turn-speed value="5.5"/>
        <rectangular-lane-cut value="false"/>
    </junctions>

    <pedestrian>
        <walkingareas value="false"/>
    </pedestrian>

    <report>
        <aggregate-warnings value="5"/>
    </report>

</configuration>
-->

<net version="1.6" junctionCornerDetail="5" limitTurnSpeed="5.50" xmlns:xsi="http://www.w3.org/2001/XMLSchema-instance" xsi:noNamespaceSchemaLocation="http://sumo.dlr.de/xsd/net_file.xsd">

    <location netOffset="-449272.26,-3674330.84" convBoundary="1007.11,226.41,1445.34,1007.07" origBoundary="-87.575918,33.206732,-87.523641,33.218667" projParameter="+proj=utm +zone=16 +ellps=WGS84 +datum=WGS84 +units=m +no_defs"/>

    <type id="highway.bridleway" priority="1" numLanes="1" speed="2.78" allow="pedestrian" oneway="1" width="2.00"/>
    <type id="highway.bus_guideway" priority="1" numLanes="1" speed="27.78" allow="bus" oneway="1"/>
    <type id="highway.cycleway" priority="1" numLanes="1" speed="8.33" allow="bicycle" oneway="0" width="1.00"/>
    <type id="highway.footway" priority="1" numLanes="1" speed="2.78" allow="pedestrian" oneway="1" width="2.00"/>
    <type id="highway.ford" priority="1" numLanes="1" speed="2.78" allow="army" oneway="0"/>
    <type id="highway.living_street" priority="2" numLanes="1" speed="2.78" disallow="tram rail_urban rail rail_electric rail_fast ship" oneway="0"/>
    <type id="highway.motorway" priority="14" numLanes="2" speed="39.44" allow="private emergency authority army vip passenger hov taxi bus coach delivery truck trailer motorcycle evehicle custom1 custom2" oneway="1"/>
    <type id="highway.motorway_link" priority="9" numLanes="1" speed="22.22" allow="private emergency authority army vip passenger hov taxi bus coach delivery truck trailer motorcycle evehicle custom1 custom2" oneway="1"/>
    <type id="highway.path" priority="1" numLanes="1" speed="2.78" allow="pedestrian bicycle" oneway="1" width="2.00"/>
    <type id="highway.pedestrian" priority="1" numLanes="1" speed="2.78" allow="pedestrian" oneway="1" width="2.00"/>
    <type id="highway.primary" priority="12" numLanes="2" speed="27.78" disallow="tram rail_urban rail rail_electric rail_fast ship" oneway="0"/>
    <type id="highway.primary_link" priority="7" numLanes="1" speed="22.22" disallow="tram rail_urban rail rail_electric rail_fast ship" oneway="0"/>
    <type id="highway.raceway" priority="15" numLanes="2" speed="83.33" allow="vip" oneway="0"/>
    <type id="highway.residential" priority="3" numLanes="1" speed="13.89" disallow="tram rail_urban rail rail_electric rail_fast ship" oneway="0"/>
    <type id="highway.secondary" priority="11" numLanes="1" speed="27.78" disallow="tram rail_urban rail rail_electric rail_fast ship" oneway="0"/>
    <type id="highway.secondary_link" priority="6" numLanes="1" speed="22.22" disallow="tram rail_urban rail rail_electric rail_fast ship" oneway="0"/>
    <type id="highway.service" priority="1" numLanes="1" speed="5.56" allow="pedestrian delivery bicycle" oneway="0"/>
    <type id="highway.stairs" priority="1" numLanes="1" speed="1.39" allow="pedestrian" oneway="1" width="2.00"/>
    <type id="highway.step" priority="1" numLanes="1" speed="1.39" allow="pedestrian" oneway="1" width="2.00"/>
    <type id="highway.steps" priority="1" numLanes="1" speed="1.39" allow="pedestrian" oneway="1" width="2.00"/>
    <type id="highway.tertiary" priority="10" numLanes="1" speed="22.22" disallow="tram rail_urban rail rail_electric rail_fast ship" oneway="0"/>
    <type id="highway.tertiary_link" priority="5" numLanes="1" speed="22.22" disallow="tram rail_urban rail rail_electric rail_fast ship" oneway="0"/>
    <type id="highway.track" priority="1" numLanes="1" speed="5.56" disallow="tram rail_urban rail rail_electric rail_fast ship" oneway="0"/>
    <type id="highway.trunk" priority="13" numLanes="2" speed="27.78" disallow="pedestrian bicycle tram rail_urban rail rail_electric rail_fast ship" oneway="0"/>
    <type id="highway.trunk_link" priority="8" numLanes="1" speed="22.22" disallow="pedestrian bicycle tram rail_urban rail rail_electric rail_fast ship" oneway="0"/>
    <type id="highway.unclassified" priority="4" numLanes="1" speed="13.89" disallow="tram rail_urban rail rail_electric rail_fast ship" oneway="0"/>
    <type id="highway.unsurfaced" priority="1" numLanes="1" speed="8.33" disallow="tram rail_urban rail rail_electric rail_fast ship" oneway="0"/>
    <type id="railway.highspeed" priority="21" numLanes="1" speed="69.44" allow="rail_fast" oneway="1"/>
    <type id="railway.light_rail" priority="19" numLanes="1" speed="27.78" allow="rail_urban" oneway="1"/>
    <type id="railway.preserved" priority="16" numLanes="1" speed="27.78" allow="rail" oneway="1"/>
    <type id="railway.rail" priority="20" numLanes="1" speed="44.44" allow="rail" oneway="1"/>
    <type id="railway.subway" priority="18" numLanes="1" speed="27.78" allow="rail_urban" oneway="1"/>
    <type id="railway.tram" priority="17" numLanes="1" speed="13.89" allow="tram" oneway="1"/>

    <edge id=":1039680317_0" function="internal">
        <lane id=":1039680317_0_0" index="0" disallow="tram rail_urban rail rail_electric rail_fast ship" speed="22.22" length="0.10" shape="1407.73,938.25 1407.80,938.28"/>
    </edge>
    <edge id=":1039680317_1" function="internal">
        <lane id=":1039680317_1_0" index="0" disallow="tram rail_urban rail rail_electric rail_fast ship" speed="3.65" length="2.34" shape="1407.73,938.25 1406.96,937.04 1406.92,936.14"/>
    </edge>
    <edge id=":1039680317_4" function="internal">
        <lane id=":1039680317_4_0" index="0" disallow="tram rail_urban rail rail_electric rail_fast ship" speed="3.65" length="2.34" shape="1406.92,936.14 1407.61,935.57 1409.03,935.33"/>
    </edge>
    <edge id=":1039680317_2" function="internal">
        <lane id=":1039680317_2_0" index="0" disallow="tram rail_urban rail rail_electric rail_fast ship" speed="22.22" length="0.10" shape="1408.96,935.30 1409.03,935.33"/>
    </edge>
    <edge id=":1039680317_3" function="internal">
        <lane id=":1039680317_3_0" index="0" disallow="tram rail_urban rail rail_electric rail_fast ship" speed="3.65" length="2.34" shape="1408.96,935.30 1409.79,936.48 1409.87,937.37"/>
    </edge>
    <edge id=":1039680317_5" function="internal">
        <lane id=":1039680317_5_0" index="0" disallow="tram rail_urban rail rail_electric rail_fast ship" speed="3.65" length="2.34" shape="1409.87,937.37 1409.21,937.97 1407.80,938.28"/>
    </edge>
    <edge id=":1039687665_0" function="internal">
        <lane id=":1039687665_0_0" index="0" disallow="tram rail_urban rail rail_electric rail_fast ship" speed="3.65" length="4.67" shape="1446.00,951.82 1446.76,953.04 1446.80,953.94 1446.11,954.50 1444.68,954.74"/>
    </edge>
    <edge id=":1438058592_0" function="internal">
        <lane id=":1438058592_0_0" index="0" allow="pedestrian delivery bicycle" speed="3.65" length="4.67" shape="1310.42,673.51 1311.60,672.67 1312.49,672.58 1313.09,673.24 1313.42,674.65"/>
    </edge>
    <edge id=":1438058596_0" function="internal">
        <lane id=":1438058596_0_0" index="0" allow="pedestrian delivery bicycle" speed="5.56" length="7.72" shape="1307.63,689.93 1306.61,691.78 1305.25,692.86 1303.53,693.18 1301.46,692.72"/>
    </edge>
    <edge id=":1438058596_1" function="internal">
        <lane id=":1438058596_1_0" index="0" allow="pedestrian delivery bicycle" speed="3.65" length="4.67" shape="1307.63,689.93 1306.46,690.76 1305.57,690.86 1304.97,690.20 1304.64,688.79"/>
    </edge>
    <edge id=":1438058596_2" function="internal">
        <lane id=":1438058596_2_0" index="0" allow="pedestrian delivery bicycle" speed="3.90" length="2.57" shape="1302.58,689.72 1303.27,689.88 1303.85,689.77 1304.30,689.41 1304.64,688.79"/>
    </edge>
    <edge id=":1438058596_3" function="internal">
        <lane id=":1438058596_3_0" index="0" allow="pedestrian delivery bicycle" speed="3.65" length="4.67" shape="1302.58,689.72 1303.43,690.89 1303.52,691.78 1302.87,692.39 1301.46,692.72"/>
    </edge>
    <edge id=":4325868483_0" function="internal">
        <lane id=":4325868483_0_0" index="0" disallow="tram rail_urban rail rail_electric rail_fast ship" speed="3.65" length="4.67" shape="1006.48,765.57 1005.69,764.36 1005.64,763.47 1006.32,762.89 1007.74,762.63"/>
    </edge>
    <edge id=":5821898544_0" function="internal">
        <lane id=":5821898544_0_0" index="0" allow="pedestrian delivery bicycle" speed="3.65" length="4.67" shape="1258.37,809.44 1259.18,810.63 1259.25,811.52 1258.58,812.11 1257.17,812.40"/>
    </edge>
    <edge id=":cluster_1039765911_5021341467_0" function="internal">
        <lane id=":cluster_1039765911_5021341467_0_0" index="0" disallow="tram rail_urban rail rail_electric rail_fast ship" speed="18.05" length="16.40" shape="1378.19,926.36 1363.20,919.73"/>
    </edge>
    <edge id=":cluster_1039765911_5021341467_1" function="internal">
        <lane id=":cluster_1039765911_5021341467_1_0" index="0" disallow="tram rail_urban rail rail_electric rail_fast ship" speed="3.69" length="4.83" shape="1378.19,926.36 1377.38,925.11 1377.33,924.18 1378.04,923.59 1379.50,923.32"/>
    </edge>
    <edge id=":cluster_1039765911_5021341467_2" function="internal">
        <lane id=":cluster_1039765911_5021341467_2_0" index="0" disallow="tram rail_urban rail rail_electric rail_fast ship" speed="18.05" length="16.42" shape="1364.53,916.57 1379.50,923.32"/>
    </edge>
    <edge id=":cluster_1438058589_4997522584_0" function="internal">
        <lane id=":cluster_1438058589_4997522584_0_0" index="0" disallow="tram rail_urban rail rail_electric rail_fast ship" speed="22.22" length="0.28" shape="1302.19,645.97 1302.07,646.26"/>
        <lane id=":cluster_1438058589_4997522584_0_1" index="1" disallow="tram rail_urban rail rail_electric rail_fast ship" speed="22.22" length="0.28" shape="1299.20,644.83 1299.10,645.07"/>
    </edge>
    <edge id=":cluster_1438058594_4997522585_0" function="internal">
        <lane id=":cluster_1438058594_4997522585_0_0" index="0" allow="pedestrian delivery bicycle" speed="6.00" length="7.33" shape="1290.76,688.72 1288.31,688.01 1286.40,687.90 1285.02,688.40 1284.17,689.50"/>
    </edge>
    <edge id=":cluster_1438058594_4997522585_1" function="internal">
        <lane id=":cluster_1438058594_4997522585_1_0" index="0" allow="pedestrian delivery bicycle" speed="3.65" length="4.67" shape="1290.76,688.72 1289.92,687.55 1289.82,686.66 1290.48,686.05 1291.88,685.72"/>
    </edge>
    <edge id=":cluster_1438058594_4997522585_2" function="internal">
        <lane id=":cluster_1438058594_4997522585_2_0" index="0" allow="pedestrian delivery bicycle" speed="5.81" length="7.18" shape="1287.78,680.81 1287.58,682.22 1288.19,683.50 1289.63,684.67 1291.88,685.72"/>
    </edge>
    <edge id=":cluster_1438058594_4997522585_3" function="internal">
        <lane id=":cluster_1438058594_4997522585_3_0" index="0" disallow="tram rail_urban rail rail_electric rail_fast ship" speed="22.22" length="9.44" shape="1287.78,680.81 1284.17,689.50"/>
        <lane id=":cluster_1438058594_4997522585_3_1" index="1" disallow="tram rail_urban rail rail_electric rail_fast ship" speed="22.22" length="9.44" shape="1284.82,679.58 1281.19,688.34"/>
    </edge>
    <edge id=":cluster_5821898542_5821898543_0" function="internal">
        <lane id=":cluster_5821898542_5821898543_0_0" index="0" allow="pedestrian delivery bicycle" speed="7.16" length="11.07" shape="1245.20,807.56 1241.81,806.56 1239.08,806.58 1237.01,807.62 1235.60,809.68"/>
    </edge>
    <edge id=":cluster_5821898542_5821898543_1" function="internal">
        <lane id=":cluster_5821898542_5821898543_1_0" index="0" allow="pedestrian delivery bicycle" speed="3.65" length="4.67" shape="1245.20,807.56 1244.38,806.37 1244.31,805.48 1244.98,804.88 1246.40,804.59"/>
    </edge>
    <edge id=":cluster_5821898542_5821898543_2" function="internal">
        <lane id=":cluster_5821898542_5821898543_2_0" index="0" allow="pedestrian delivery bicycle" speed="7.38" length="11.98" shape="1240.13,795.97 1239.71,798.47 1240.62,800.73 1242.84,802.78 1246.40,804.59"/>
    </edge>
    <edge id=":cluster_5821898542_5821898543_3" function="internal">
        <lane id=":cluster_5821898542_5821898543_3_0" index="0" disallow="tram rail_urban rail rail_electric rail_fast ship" speed="22.22" length="14.48" shape="1240.13,795.97 1235.60,809.68"/>
        <lane id=":cluster_5821898542_5821898543_3_1" index="1" disallow="tram rail_urban rail rail_electric rail_fast ship" speed="22.22" length="14.48" shape="1237.17,794.75 1232.65,808.45"/>
        <lane id=":cluster_5821898542_5821898543_3_2" index="2" disallow="tram rail_urban rail rail_electric rail_fast ship" speed="22.22" length="14.48" shape="1237.17,794.75 1235.23,798.59 1233.44,800.99 1231.66,803.39 1229.70,807.22"/>
    </edge>
    <edge id=":gneJ12_0" function="internal">
        <lane id=":gneJ12_0_0" index="0" disallow="tram rail_urban rail rail_electric rail_fast ship" speed="22.22" length="0.32" shape="1073.58,794.45 1073.29,794.32"/>
    </edge>
    <edge id=":gneJ12_1" function="internal">
        <lane id=":gneJ12_1_0" index="0" disallow="tram rail_urban rail rail_electric rail_fast ship" speed="22.22" length="0.27" shape="1074.56,791.38 1074.81,791.49"/>
    </edge>
    <edge id=":gneJ2_0" function="internal">
        <lane id=":gneJ2_0_0" index="0" allow="bus" speed="11.18" length="18.54" shape="1162.72,943.22 1169.32,925.96"/>
        <lane id=":gneJ2_0_1" index="1" disallow="tram rail_urban rail rail_electric rail_fast ship" speed="11.18" length="18.54" shape="1165.70,944.38 1172.28,927.17"/>
        <lane id=":gneJ2_0_2" index="2" disallow="tram rail_urban rail rail_electric rail_fast ship" speed="11.18" length="18.54" shape="1165.70,944.38 1168.12,939.43 1170.41,936.36 1172.74,933.30 1175.24,928.38"/>
    </edge>
    <edge id=":gneJ3_0" function="internal">
        <lane id=":gneJ3_0_0" index="0" allow="bus" speed="11.18" length="12.34" shape="1170.96,963.53 1166.58,974.99"/>
        <lane id=":gneJ3_0_1" index="1" disallow="tram rail_urban rail rail_electric rail_fast ship" speed="11.18" length="12.34" shape="1168.02,962.26 1163.66,973.68"/>
        <lane id=":gneJ3_0_2" index="2" disallow="tram rail_urban rail rail_electric rail_fast ship" speed="11.18" length="12.34" shape="1168.02,962.26 1166.20,965.46 1164.41,967.33 1162.60,969.20 1160.74,972.37"/>
    </edge>
    <edge id=":gneJ6_0" function="internal">
        <lane id=":gneJ6_0_0" index="0" speed="13.89" length="24.41" shape="1294.15,890.46 1289.78,889.27 1283.96,888.25 1277.28,886.88 1270.32,884.59"/>
        <lane id=":gneJ6_0_1" index="1" speed="13.89" length="24.41" shape="1294.15,890.46 1271.57,881.64"/>
    </edge>
    <edge id=":gneJ7_0" function="internal">
        <lane id=":gneJ7_0_0" index="0" speed="13.89" length="13.52" shape="1258.41,879.56 1245.87,874.68"/>
        <lane id=":gneJ7_0_1" index="1" speed="13.89" length="13.52" shape="1259.66,876.61 1247.18,871.75"/>
        <lane id=":gneJ7_0_2" index="2" speed="13.89" length="13.52" shape="1259.66,876.61 1256.14,874.67 1254.05,872.77 1251.97,870.84 1248.48,868.83"/>
    </edge>
    <edge id=":gneJ8_0" function="internal">
        <lane id=":gneJ8_0_0" index="0" disallow="tram rail_urban rail rail_electric rail_fast ship" speed="22.22" length="24.40" shape="1139.53,818.21 1162.32,826.77"/>
        <lane id=":gneJ8_0_1" index="1" disallow="tram rail_urban rail rail_electric rail_fast ship" speed="22.22" length="24.40" shape="1139.53,818.21 1143.55,820.28 1148.58,823.26 1154.48,826.59 1161.10,829.73"/>
    </edge>
    <edge id=":tl_1_0" function="internal">
        <lane id=":tl_1_0_0" index="0" disallow="tram rail_urban rail rail_electric rail_fast ship" speed="9.08" length="18.99" shape="1226.45,866.02 1219.60,863.36 1214.39,862.23 1210.83,862.62 1208.90,864.55"/>
    </edge>
    <edge id=":tl_1_1" function="internal">
        <lane id=":tl_1_1_0" index="0" disallow="tram rail_urban rail rail_electric rail_fast ship" speed="18.05" length="40.80" shape="1227.80,863.11 1190.73,846.06"/>
    </edge>
    <edge id=":tl_1_2" function="internal">
        <lane id=":tl_1_2_0" index="0" disallow="tram rail_urban rail rail_electric rail_fast ship" speed="11.70" length="20.02" shape="1229.14,860.21 1218.68,854.85 1212.05,849.91"/>
    </edge>
    <edge id=":tl_1_14" function="internal">
        <lane id=":tl_1_14_0" index="0" disallow="tram rail_urban rail rail_electric rail_fast ship" speed="11.70" length="11.09" shape="1212.05,849.91 1211.77,849.70 1208.41,844.74 1208.61,839.99"/>
    </edge>
    <edge id=":tl_1_3" function="internal">
        <lane id=":tl_1_3_0" index="0" disallow="tram rail_urban rail rail_electric rail_fast ship" speed="8.72" length="16.77" shape="1220.61,845.24 1220.31,848.09 1221.90,850.97 1225.37,853.85 1230.73,856.76"/>
    </edge>
    <edge id=":tl_1_4" function="internal">
        <lane id=":tl_1_4_0" index="0" disallow="tram rail_urban rail rail_electric rail_fast ship" speed="16.70" length="22.51" shape="1220.61,845.24 1217.41,851.32 1214.49,855.30 1211.70,859.08 1208.90,864.55"/>
        <lane id=":tl_1_4_1" index="1" disallow="tram rail_urban rail rail_electric rail_fast ship" speed="16.70" length="22.51" shape="1217.68,843.95 1208.90,864.55"/>
    </edge>
    <edge id=":tl_1_6" function="internal">
        <lane id=":tl_1_6_0" index="0" disallow="tram rail_urban rail rail_electric rail_fast ship" speed="10.94" length="27.07" shape="1214.74,842.67 1211.39,847.13 1206.28,849.18 1199.39,848.82 1190.73,846.06"/>
    </edge>
    <edge id=":tl_1_7" function="internal">
        <lane id=":tl_1_7_0" index="0" disallow="tram rail_urban rail rail_electric rail_fast ship" speed="7.85" length="13.49" shape="1193.50,839.59 1198.03,841.09 1201.57,841.44 1204.12,840.64 1205.68,838.71"/>
    </edge>
    <edge id=":tl_1_8" function="internal">
        <lane id=":tl_1_8_0" index="0" disallow="tram rail_urban rail rail_electric rail_fast ship" speed="18.05" length="41.00" shape="1193.50,839.59 1230.73,856.76"/>
    </edge>
    <edge id=":tl_1_9" function="internal">
        <lane id=":tl_1_9_0" index="0" disallow="tram rail_urban rail rail_electric rail_fast ship" speed="11.58" length="30.85" shape="1192.28,842.55 1201.55,847.31 1207.41,852.56 1209.86,858.31 1208.90,864.55"/>
    </edge>
    <edge id=":tl_1_10" function="internal">
        <lane id=":tl_1_10_0" index="0" disallow="tram rail_urban rail rail_electric rail_fast ship" speed="8.62" length="16.55" shape="1196.56,859.37 1197.62,855.05 1197.01,851.39 1194.71,848.39 1190.73,846.06"/>
    </edge>
    <edge id=":tl_1_11" function="internal">
        <lane id=":tl_1_11_0" index="0" disallow="tram rail_urban rail rail_electric rail_fast ship" speed="16.70" length="22.56" shape="1196.56,859.37 1205.68,838.71"/>
        <lane id=":tl_1_11_1" index="1" disallow="tram rail_urban rail rail_electric rail_fast ship" speed="16.70" length="22.56" shape="1199.51,860.61 1208.61,839.99"/>
    </edge>
    <edge id=":tl_1_13" function="internal">
        <lane id=":tl_1_13_0" index="0" disallow="tram rail_urban rail rail_electric rail_fast ship" speed="11.72" length="13.28" shape="1202.46,861.85 1206.57,855.80 1211.97,853.26"/>
    </edge>
    <edge id=":tl_1_15" function="internal">
        <lane id=":tl_1_15_0" index="0" disallow="tram rail_urban rail rail_electric rail_fast ship" speed="11.72" length="19.43" shape="1211.97,853.26 1212.65,852.94 1220.70,853.26 1230.73,856.76"/>
    </edge>

    <edge id="-130611463#3" from="1438058596" to="1438058592" priority="1" type="highway.service">
        <lane id="-130611463#3_0" index="0" allow="pedestrian delivery bicycle" speed="5.56" length="16.34" shape="1304.64,688.79 1310.42,673.51">
            <param key="origId" value="130611463"/>
        </lane>
    </edge>
    <edge id="-130611469#6" from="cluster_1438058594_4997522585" to="1438058596" priority="1" type="highway.service" shape="1289.02,686.36 1305.01,692.34">
        <lane id="-130611469#6_0" index="0" allow="pedestrian delivery bicycle" speed="5.56" length="11.43" shape="1291.88,685.72 1302.58,689.72">
            <param key="origId" value="130611469"/>
        </lane>
        <param key="origFrom" value="4997522585"/>
    </edge>
    <edge id="-434396594" from="1039680317" to="1039687665" priority="10" type="highway.tertiary" shape="1408.38,936.79 1426.20,944.66 1445.34,953.28">
        <lane id="-434396594_0" index="0" disallow="tram rail_urban rail rail_electric rail_fast ship" speed="22.22" length="40.48" shape="1409.03,935.33 1426.85,943.20 1446.00,951.82">
            <param key="origId" value="434396594"/>
        </lane>
    </edge>
    <edge id="-434396602" from="cluster_1039765911_5021341467" to="1039680317" priority="10" type="highway.tertiary" shape="1378.87,924.79 1391.91,930.42 1408.38,936.79">
        <lane id="-434396602_0" index="0" disallow="tram rail_urban rail rail_electric rail_fast ship" speed="22.22" length="31.80" shape="1379.50,923.32 1392.52,928.94 1408.96,935.30">
            <param key="origId" value="434396602"/>
        </lane>
        <param key="origFrom" value="1039765911"/>
    </edge>
    <edge id="-434543206" from="4325868483" to="gneJ12" priority="10" type="highway.tertiary">
        <lane id="-434543206_0" index="0" disallow="tram rail_urban rail rail_electric rail_fast ship" speed="22.22" length="72.74" shape="1007.74,762.63 1074.56,791.38">
            <param key="origId" value="434543206"/>
        </lane>
    </edge>
    <edge id="-434543207#1" from="gneJ12" to="gneJ8" priority="10" type="highway.tertiary" shape="1074.06,792.91 1138.92,819.69">
        <lane id="-434543207#1_0" index="0" disallow="tram rail_urban rail rail_electric rail_fast ship" speed="22.22" length="70.03" shape="1074.81,791.49 1139.53,818.21">
            <param key="origId" value="434543207"/>
        </lane>
        <param key="origTo" value="2683686272"/>
    </edge>
    <edge id="-516481997#1" from="tl_1" to="gneJ3" name="Peter Bryce Boulevard" priority="10" type="highway.tertiary" shape="1206.00,867.41 1183.48,922.31 1166.55,961.63">
        <lane id="-516481997#1_0" index="0" allow="bus" speed="11.18" length="105.94" shape="1211.86,865.78 1187.91,924.17 1170.96,963.53">
            <param key="origId" value="516481997"/>
        </lane>
        <lane id="-516481997#1_1" index="1" disallow="tram rail_urban rail rail_electric rail_fast ship" speed="11.18" length="105.94" shape="1208.90,864.55 1184.96,922.93 1168.02,962.26">
            <param key="origId" value="516481997"/>
        </lane>
        <param key="origFrom" value="5021341446"/>
    </edge>
    <edge id="-516481997#1.104" from="gneJ3" to="5021341447" name="Peter Bryce Boulevard" priority="10" type="highway.tertiary" shape="1159.28,971.72 1150.30,991.79">
        <lane id="-516481997#1.104_0" index="0" disallow="tram rail_urban rail rail_electric rail_fast ship" speed="11.18" length="36.09" shape="1166.58,974.99 1151.84,1007.93">
            <param key="origId" value="516481997"/>
        </lane>
        <lane id="-516481997#1.104_1" index="1" disallow="tram rail_urban rail rail_electric rail_fast ship" speed="11.18" length="36.09" shape="1163.66,973.68 1148.92,1006.62">
            <param key="origId" value="516481997"/>
        </lane>
        <lane id="-516481997#1.104_2" index="2" disallow="tram rail_urban rail rail_electric rail_fast ship" speed="11.18" length="36.09" shape="1160.74,972.37 1146.00,1005.32">
            <param key="origId" value="516481997"/>
        </lane>
        <param key="origFrom" value="5021341446"/>
    </edge>
    <edge id="-615691369#1" from="5821898544" to="cluster_5821898542_5821898543" priority="1" type="highway.service" shape="1257.77,810.92 1241.16,804.20">
        <lane id="-615691369#1_0" index="0" allow="pedestrian delivery bicycle" speed="5.56" length="12.92" shape="1257.17,812.40 1245.20,807.56">
            <param key="origId" value="615691369"/>
        </lane>
        <param key="origTo" value="5821898543"/>
    </edge>
    <edge id="130611463#3" from="1438058592" to="1438058596" priority="1" type="highway.service">
        <lane id="130611463#3_0" index="0" allow="pedestrian delivery bicycle" speed="5.56" length="16.34" shape="1313.42,674.65 1307.63,689.93">
            <param key="origId" value="130611463"/>
        </lane>
    </edge>
    <edge id="130611469#6" from="1438058596" to="cluster_1438058594_4997522585" priority="1" type="highway.service" shape="1305.01,692.34 1289.02,686.36">
        <lane id="130611469#6_0" index="0" allow="pedestrian delivery bicycle" speed="5.56" length="11.43" shape="1301.46,692.72 1290.76,688.72">
            <param key="origId" value="130611469"/>
        </lane>
        <param key="origTo" value="4997522585"/>
    </edge>
    <edge id="207109514#1" from="5021257478" to="tl_1" priority="1" type="highway.footway" spreadType="center" shape="1200.85,835.59 1196.76,844.94">
        <lane id="207109514#1_0" index="0" allow="pedestrian" speed="2.78" length="0.10" width="2.00" shape="1200.48,836.43 1200.44,836.53">
            <param key="origId" value="207109514"/>
        </lane>
        <param key="origTo" value="2683686272"/>
    </edge>
    <edge id="207109514#2" from="tl_1" to="2683686280" priority="1" type="highway.footway" spreadType="center" shape="1196.76,844.94 1190.67,858.53">
        <lane id="207109514#2_0" index="0" allow="pedestrian" speed="2.78" length="0.20" width="2.00" shape="1191.52,856.63 1191.44,856.81">
            <param key="origId" value="207109514"/>
        </lane>
        <param key="origFrom" value="2683686272"/>
    </edge>
    <edge id="262715741#2" from="2683686278" to="2683686280" priority="1" type="highway.footway" spreadType="center" shape="1009.64,788.22 1019.98,788.73 1182.81,855.32">
        <lane id="262715741#2_0" index="0" allow="pedestrian" speed="2.78" length="186.27" width="2.00" shape="1009.64,788.22 1019.98,788.73 1182.81,855.32">
            <param key="origId" value="262715741"/>
        </lane>
    </edge>
    <edge id="434396594" from="1039687665" to="1039680317" priority="10" type="highway.tertiary" shape="1445.34,953.28 1426.20,944.66 1408.38,936.79">
        <lane id="434396594_0" index="0" disallow="tram rail_urban rail rail_electric rail_fast ship" speed="22.22" length="40.46" shape="1444.68,954.74 1425.55,946.12 1407.73,938.25">
            <param key="origId" value="434396594"/>
        </lane>
    </edge>
    <edge id="434396602" from="1039680317" to="cluster_1039765911_5021341467" priority="10" type="highway.tertiary" shape="1408.38,936.79 1391.91,930.42 1378.38,924.70">
        <lane id="434396602_0" index="0" disallow="tram rail_urban rail rail_electric rail_fast ship" speed="22.22" length="31.92" shape="1407.80,938.28 1391.31,931.90 1378.19,926.36">
            <param key="origId" value="434396602"/>
        </lane>
        <param key="origTo" value="1039765911"/>
    </edge>
    <edge id="434543206" from="gneJ12" to="4325868483" priority="10" type="highway.tertiary">
        <lane id="434543206_0" index="0" disallow="tram rail_urban rail rail_electric rail_fast ship" speed="22.22" length="72.74" shape="1073.29,794.32 1006.48,765.57">
            <param key="origId" value="434543206"/>
        </lane>
    </edge>
    <edge id="434543207#1" from="tl_1" to="gneJ12" priority="10" type="highway.tertiary" shape="1191.64,844.70 1160.14,831.60 1148.06,825.91 1132.12,817.55 1074.06,792.91">
        <lane id="434543207#1_0" index="0" disallow="tram rail_urban rail rail_electric rail_fast ship" speed="22.22" length="128.07" shape="1190.73,846.06 1159.49,833.06 1147.35,827.34 1131.43,819.00 1073.58,794.45">
            <param key="origId" value="434543207"/>
        </lane>
        <param key="origFrom" value="2683686272"/>
    </edge>
    <edge id="434950672#1" from="4336252131" to="gneJ2" name="Peter Bryce Boulevard" priority="10" type="highway.tertiary" spreadType="center" shape="1144.92,990.70 1158.03,959.71 1164.21,943.80">
        <lane id="434950672#1_0" index="0" allow="bus" speed="11.18" length="60.75" shape="1139.54,999.31 1156.55,959.11 1162.72,943.22">
            <param key="origId" value="434950672"/>
        </lane>
        <lane id="434950672#1_1" index="1" disallow="tram rail_urban rail rail_electric rail_fast ship" speed="11.18" length="60.75" shape="1142.49,1000.56 1159.51,960.31 1165.70,944.38">
            <param key="origId" value="434950672"/>
        </lane>
        <param key="origTo" value="5801153063"/>
    </edge>
    <edge id="489389767#1" from="cluster_1438058589_4997522584" to="cluster_1438058594_4997522585" name="Peter Bryce Boulevard" priority="10" type="highway.tertiary" spreadType="center" shape="1300.64,645.53 1297.93,652.27 1284.42,684.71">
        <lane id="489389767#1_0" index="0" disallow="tram rail_urban rail rail_electric rail_fast ship" speed="22.22" length="37.38" shape="1302.07,646.26 1299.41,652.88 1287.78,680.81">