<?xml version="1.0" ?>
<!--Generated Detectors-->
<additional>
   <laneAreaDetector id="Bryce_NB_0_detect" pos="18.6" lane="Bryce_NB_0" freq="1" friendlyPos="True" length="3.047999902464003" file="_detect_OUTPUT_.xml"/>
   <laneAreaDetector id="Bryce_NB_1_detect" pos="16.6" lane="Bryce_NB_1" freq="1" friendlyPos="True" length="3.047999902464003" file="_detect_OUTPUT_.xml"/>
   <laneAreaDetector id="Bryce_NB_2_detect" pos="30.1" lane="Bryce_NB_2" freq="1" friendlyPos="True" length="9.143999707392009" file="_detect_OUTPUT_.xml"/>
   <laneAreaDetector id="Campus_EB_0_detect" pos="19.9" lane="Campus_EB_0" freq="1" friendlyPos="True" length="3.047999902464003" file="_detect_OUTPUT_.xml"/>
   <laneAreaDetector id="Campus_EB_1_detect" pos="25.3" lane="Campus_EB_1" freq="1" friendlyPos="True" length="9.143999707392009" file="_detect_OUTPUT_.xml"/>
   <laneAreaDetector id="Bryce_SB_0_detect" pos="53.0" lane="Bryce_SB_0" freq="1" friendlyPos="True" length="3.047999902464003" file="_detect_OUTPUT_.xml"/>
   <laneAreaDetector id="Bryce_SB_1_detect" pos="51.5" lane="Bryce_SB_1" freq="1" friendlyPos="True" length="3.047999902464003" file="_detect_OUTPUT_.xml"/>
   <laneAreaDetector id="Bryce_SB_2_detect" pos="62.8" lane="Bryce_SB_2" freq="1" friendlyPos="True" length="9.143999707392009" file="_detect_OUTPUT_.xml"/>
   <laneAreaDetector id="Campus_WB_1_detect" pos="10.2" lane="Campus_WB_1" freq="1" friendlyPos="True" length="3.047999902464003" file="_detect_OUTPUT_.xml"/>
   <laneAreaDetector id="Campus_WB_2_detect" pos="12.1" lane="Campus_WB_2" freq="1" friendlyPos="True" length="9.143999707392009" file="_detect_OUTPUT_.xml"/>
</additional>
