<?xml version="1.0" encoding="UTF-8"?>

<!-- generated on 06/17/20 13:17:23 by Eclipse SUMO netconvert Version v1_6_0+0521-bad558c3e9
<configuration xmlns:xsi="http://www.w3.org/2001/XMLSchema-instance" xsi:noNamespaceSchemaLocation="http://sumo.dlr.de/xsd/netconvertConfiguration.xsd">

    <input>
        <sumo-net-file value="C:\Users\spraychamber\PycharmProjects\campus-bryce-intersection\sim_files\net\net.net.xml,C:\Users\spraychamber\PycharmProjects\US69\03_sim_files\net\hwy69_improved_with_geo.net.xml"/>
    </input>

    <output>
        <output-file value="merged.net.xml"/>
        <output.street-names value="true"/>
    </output>

    <processing>
        <geometry.min-radius.fix.railways value="false"/>
        <geometry.max-grade.fix value="false"/>
        <offset.disable-normalization value="true"/>
        <lefthand value="false"/>
    </processing>

    <junctions>
        <no-turnarounds value="true"/>
        <junctions.corner-detail value="5"/>
        <junctions.limit-turn-speed value="5.5"/>
        <rectangular-lane-cut value="false"/>
    </junctions>

    <pedestrian>
        <walkingareas value="false"/>
    </pedestrian>

    <report>
        <aggregate-warnings value="5"/>
    </report>

</configuration>
-->

<net version="1.6" junctionCornerDetail="5" limitTurnSpeed="5.50" xmlns:xsi="http://www.w3.org/2001/XMLSchema-instance" xsi:noNamespaceSchemaLocation="http://sumo.dlr.de/xsd/net_file.xsd">

    <location netOffset="-449272.26,-3674330.84" convBoundary="-829.93,-10017.83,1445.34,1007.07" origBoundary="-87.575918,33.206732,-87.523641,33.218667" projParameter="+proj=utm +zone=16 +ellps=WGS84 +datum=WGS84 +units=m +no_defs"/>

    <type id="highway.bridleway" priority="1" numLanes="1" speed="2.78" allow="pedestrian" oneway="1" width="2.00"/>
    <type id="highway.bus_guideway" priority="1" numLanes="1" speed="27.78" allow="bus" oneway="1"/>
    <type id="highway.cycleway" priority="1" numLanes="1" speed="8.33" allow="bicycle" oneway="0" width="1.00"/>
    <type id="highway.footway" priority="1" numLanes="1" speed="2.78" allow="pedestrian" oneway="1" width="2.00"/>
    <type id="highway.ford" priority="1" numLanes="1" speed="2.78" allow="army" oneway="0"/>
    <type id="highway.living_street" priority="2" numLanes="1" speed="2.78" disallow="tram rail_urban rail rail_electric rail_fast ship" oneway="0"/>
    <type id="highway.motorway" priority="14" numLanes="2" speed="39.44" allow="private emergency authority army vip passenger hov taxi bus coach delivery truck trailer motorcycle evehicle custom1 custom2" oneway="1"/>
    <type id="highway.motorway_link" priority="9" numLanes="1" speed="22.22" allow="private emergency authority army vip passenger hov taxi bus coach delivery truck trailer motorcycle evehicle custom1 custom2" oneway="1"/>
    <type id="highway.path" priority="1" numLanes="1" speed="2.78" allow="pedestrian bicycle" oneway="1" width="2.00"/>
    <type id="highway.pedestrian" priority="1" numLanes="1" speed="2.78" allow="pedestrian" oneway="1" width="2.00"/>
    <type id="highway.primary" priority="12" numLanes="2" speed="27.78" disallow="tram rail_urban rail rail_electric rail_fast ship" oneway="0"/>
    <type id="highway.primary_link" priority="7" numLanes="1" speed="22.22" disallow="tram rail_urban rail rail_electric rail_fast ship" oneway="0"/>
    <type id="highway.raceway" priority="15" numLanes="2" speed="83.33" allow="vip" oneway="0"/>
    <type id="highway.residential" priority="3" numLanes="1" speed="13.89" disallow="tram rail_urban rail rail_electric rail_fast ship" oneway="0"/>
    <type id="highway.secondary" priority="11" numLanes="1" speed="27.78" disallow="tram rail_urban rail rail_electric rail_fast ship" oneway="0"/>
    <type id="highway.secondary_link" priority="6" numLanes="1" speed="22.22" disallow="tram rail_urban rail rail_electric rail_fast ship" oneway="0"/>
    <type id="highway.service" priority="1" numLanes="1" speed="5.56" allow="pedestrian delivery bicycle" oneway="0"/>
    <type id="highway.stairs" priority="1" numLanes="1" speed="1.39" allow="pedestrian" oneway="1" width="2.00"/>
    <type id="highway.step" priority="1" numLanes="1" speed="1.39" allow="pedestrian" oneway="1" width="2.00"/>
    <type id="highway.steps" priority="1" numLanes="1" speed="1.39" allow="pedestrian" oneway="1" width="2.00"/>
    <type id="highway.tertiary" priority="10" numLanes="1" speed="22.22" disallow="tram rail_urban rail rail_electric rail_fast ship" oneway="0"/>
    <type id="highway.tertiary_link" priority="5" numLanes="1" speed="22.22" disallow="tram rail_urban rail rail_electric rail_fast ship" oneway="0"/>
    <type id="highway.track" priority="1" numLanes="1" speed="5.56" disallow="tram rail_urban rail rail_electric rail_fast ship" oneway="0"/>
    <type id="highway.trunk" priority="13" numLanes="2" speed="27.78" disallow="pedestrian bicycle tram rail_urban rail rail_electric rail_fast ship" oneway="0"/>
    <type id="highway.trunk_link" priority="8" numLanes="1" speed="22.22" disallow="pedestrian bicycle tram rail_urban rail rail_electric rail_fast ship" oneway="0"/>
    <type id="highway.unclassified" priority="4" numLanes="1" speed="13.89" disallow="tram rail_urban rail rail_electric rail_fast ship" oneway="0"/>
    <type id="highway.unsurfaced" priority="1" numLanes="1" speed="8.33" disallow="tram rail_urban rail rail_electric rail_fast ship" oneway="0"/>
    <type id="railway.highspeed" priority="21" numLanes="1" speed="69.44" allow="rail_fast" oneway="1"/>
    <type id="railway.light_rail" priority="19" numLanes="1" speed="27.78" allow="rail_urban" oneway="1"/>
    <type id="railway.preserved" priority="16" numLanes="1" speed="27.78" allow="rail" oneway="1"/>
    <type id="railway.rail" priority="20" numLanes="1" speed="44.44" allow="rail" oneway="1"/>
    <type id="railway.subway" priority="18" numLanes="1" speed="27.78" allow="rail_urban" oneway="1"/>
    <type id="railway.tram" priority="17" numLanes="1" speed="13.89" allow="tram" oneway="1"/>

    <edge id=":1039680317_0" function="internal">
        <lane id=":1039680317_0_0" index="0" disallow="tram rail_urban rail rail_electric rail_fast ship" speed="22.22" length="0.10" shape="1407.73,938.25 1407.80,938.28"/>
    </edge>
    <edge id=":1039680317_1" function="internal">
        <lane id=":1039680317_1_0" index="0" disallow="tram rail_urban rail rail_electric rail_fast ship" speed="3.65" length="2.34" shape="1407.73,938.25 1406.96,937.04 1406.92,936.14"/>
    </edge>
    <edge id=":1039680317_4" function="internal">
        <lane id=":1039680317_4_0" index="0" disallow="tram rail_urban rail rail_electric rail_fast ship" speed="3.65" length="2.34" shape="1406.92,936.14 1407.61,935.57 1409.03,935.33"/>
    </edge>
    <edge id=":1039680317_2" function="internal">
        <lane id=":1039680317_2_0" index="0" disallow="tram rail_urban rail rail_electric rail_fast ship" speed="22.22" length="0.10" shape="1408.96,935.30 1409.03,935.33"/>
    </edge>
    <edge id=":1039680317_3" function="internal">
        <lane id=":1039680317_3_0" index="0" disallow="tram rail_urban rail rail_electric rail_fast ship" speed="3.65" length="2.34" shape="1408.96,935.30 1409.79,936.48 1409.87,937.37"/>
    </edge>
    <edge id=":1039680317_5" function="internal">
        <lane id=":1039680317_5_0" index="0" disallow="tram rail_urban rail rail_electric rail_fast ship" speed="3.65" length="2.34" shape="1409.87,937.37 1409.21,937.97 1407.80,938.28"/>
    </edge>
    <edge id=":1039687665_0" function="internal">
        <lane id=":1039687665_0_0" index="0" disallow="tram rail_urban rail rail_electric rail_fast ship" speed="3.65" length="4.67" shape="1446.00,951.82 1446.76,953.04 1446.80,953.94 1446.11,954.50 1444.68,954.74"/>
    </edge>
    <edge id=":1438058592_0" function="internal">
        <lane id=":1438058592_0_0" index="0" allow="pedestrian delivery bicycle" speed="3.65" length="4.67" shape="1310.42,673.51 1311.60,672.67 1312.49,672.58 1313.09,673.24 1313.42,674.65"/>
    </edge>
    <edge id=":1438058596_0" function="internal">
        <lane id=":1438058596_0_0" index="0" allow="pedestrian delivery bicycle" speed="5.56" length="7.72" shape="1307.63,689.93 1306.61,691.78 1305.25,692.86 1303.53,693.18 1301.46,692.72"/>
    </edge>
    <edge id=":1438058596_1" function="internal">
        <lane id=":1438058596_1_0" index="0" allow="pedestrian delivery bicycle" speed="3.65" length="4.67" shape="1307.63,689.93 1306.46,690.76 1305.57,690.86 1304.97,690.20 1304.64,688.79"/>
    </edge>
    <edge id=":1438058596_2" function="internal">
        <lane id=":1438058596_2_0" index="0" allow="pedestrian delivery bicycle" speed="3.90" length="2.57" shape="1302.58,689.72 1303.27,689.88 1303.85,689.77 1304.30,689.41 1304.64,688.79"/>
    </edge>
    <edge id=":1438058596_3" function="internal">
        <lane id=":1438058596_3_0" index="0" allow="pedestrian delivery bicycle" speed="3.65" length="4.67" shape="1302.58,689.72 1303.43,690.89 1303.52,691.78 1302.87,692.39 1301.46,692.72"/>
    </edge>
    <edge id=":5821898544_0" function="internal">
        <lane id=":5821898544_0_0" index="0" allow="pedestrian delivery bicycle" speed="3.65" length="4.67" shape="1258.37,809.44 1259.18,810.63 1259.25,811.52 1258.58,812.11 1257.17,812.40"/>
    </edge>
    <edge id=":63069006_0" function="internal">
        <lane id=":63069006_0_0" index="0" speed="13.67" length="32.28" shape="-267.64,-8141.73 -273.11,-8153.60 -277.74,-8162.03 -281.53,-8167.02 -284.47,-8168.55"/>
    </edge>
    <edge id=":63069006_1" function="internal">
        <lane id=":63069006_1_0" index="0" speed="24.59" length="40.76" shape="-267.64,-8141.73 -271.96,-8153.65 -274.16,-8163.00 -276.02,-8171.48 -279.29,-8180.79"/>
        <lane id=":63069006_1_1" index="1" speed="24.59" length="40.76" shape="-264.75,-8143.10 -269.06,-8155.01 -271.25,-8164.34 -273.10,-8172.80 -276.37,-8182.09"/>
        <lane id=":63069006_1_2" index="2" speed="24.59" length="40.76" shape="-261.85,-8144.47 -266.16,-8156.37 -268.35,-8165.67 -270.18,-8174.11 -273.45,-8183.39"/>
    </edge>
    <edge id=":63069006_4" function="internal">
        <lane id=":63069006_4_0" index="0" speed="11.14" length="24.36" shape="-258.96,-8145.85 -260.62,-8157.30 -255.68,-8165.37 -252.59,-8166.58"/>
    </edge>
    <edge id=":63069006_14" function="internal">
        <lane id=":63069006_14_0" index="0" speed="11.14" length="19.68" shape="-252.59,-8166.58 -246.01,-8169.16 -233.47,-8167.80"/>
    </edge>
    <edge id=":63069006_5" function="internal">
        <lane id=":63069006_5_0" index="0" speed="15.65" length="49.66" shape="-235.32,-8161.95 -246.32,-8164.31 -261.60,-8166.52 -276.03,-8168.10 -284.47,-8168.55"/>
    </edge>
    <edge id=":63069006_6" function="internal">
        <lane id=":63069006_6_0" index="0" speed="20.12" length="43.69" shape="-234.35,-8165.00 -250.29,-8170.43 -262.12,-8175.30 -269.84,-8179.62 -273.45,-8183.39"/>
    </edge>
    <edge id=":63069006_7" function="internal">
        <lane id=":63069006_7_0" index="0" speed="16.84" length="32.40" shape="-252.93,-8192.51 -248.70,-8183.06 -244.05,-8175.79 -238.97,-8170.70 -233.47,-8167.80"/>
    </edge>
    <edge id=":63069006_8" function="internal">
        <lane id=":63069006_8_0" index="0" speed="24.59" length="39.93" shape="-252.93,-8192.51 -240.19,-8154.75"/>
        <lane id=":63069006_8_1" index="1" speed="24.59" length="39.93" shape="-255.86,-8191.21 -243.08,-8153.38"/>
        <lane id=":63069006_8_2" index="2" speed="24.59" length="39.93" shape="-258.78,-8189.91 -245.97,-8152.01"/>
    </edge>
    <edge id=":63069006_11" function="internal">
        <lane id=":63069006_11_0" index="0" speed="11.49" length="37.11" shape="-261.71,-8188.60 -260.51,-8179.35 -264.66,-8173.44 -273.03,-8170.11 -284.47,-8168.55"/>
    </edge>
    <edge id=":63069006_12" function="internal">
        <lane id=":63069006_12_0" index="0" speed="15.65" length="52.01" shape="-284.96,-8174.65 -273.37,-8173.96 -257.26,-8171.94 -242.12,-8169.56 -233.47,-8167.80"/>
    </edge>
    <edge id=":63069006_13" function="internal">
        <lane id=":63069006_13_0" index="0" speed="16.86" length="46.12" shape="-284.75,-8171.45 -271.45,-8170.68 -260.56,-8167.18 -252.06,-8160.96 -245.97,-8152.01"/>
    </edge>
    <edge id=":63069007_0" function="internal">
        <lane id=":63069007_0_0" index="0" speed="9.42" length="19.45" shape="-490.22,-8713.66 -493.12,-8720.31 -496.08,-8724.78 -499.08,-8727.06 -502.14,-8727.15"/>
    </edge>
    <edge id=":63069007_1" function="internal">
        <lane id=":63069007_1_0" index="0" speed="24.59" length="37.80" shape="-490.22,-8713.66 -502.46,-8749.26"/>
        <lane id=":63069007_1_1" index="1" speed="24.59" length="37.80" shape="-487.18,-8714.68 -499.48,-8750.43"/>
        <lane id=":63069007_1_2" index="2" speed="24.59" length="37.80" shape="-484.15,-8715.71 -496.50,-8751.60"/>
    </edge>
    <edge id=":63069007_4" function="internal">
        <lane id=":63069007_4_0" index="0" speed="14.27" length="48.56" shape="-481.12,-8716.73 -484.06,-8730.01 -482.12,-8740.85 -475.31,-8749.26 -463.62,-8755.23"/>
    </edge>
    <edge id=":63069007_5" function="internal">
        <lane id=":63069007_5_0" index="0" speed="13.50" length="43.36" shape="-478.08,-8717.75 -480.73,-8729.65 -479.04,-8739.36 -472.99,-8746.87 -462.60,-8752.19"/>
    </edge>
    <edge id=":63069007_6" function="internal">
        <lane id=":63069007_6_0" index="0" speed="15.65" length="45.49" shape="-458.59,-8740.26 -502.14,-8727.15"/>
    </edge>
    <edge id=":63069007_7" function="internal">
        <lane id=":63069007_7_0" index="0" speed="13.76" length="25.29" shape="-459.61,-8743.30 -473.12,-8740.21 -483.77,-8740.56 -484.47,-8740.90"/>
    </edge>
    <edge id=":63069007_14" function="internal">
        <lane id=":63069007_14_0" index="0" speed="13.76" length="16.65" shape="-484.47,-8740.90 -491.56,-8744.36 -496.50,-8751.60"/>
    </edge>
    <edge id=":63069007_8" function="internal">
        <lane id=":63069007_8_0" index="0" speed="24.59" length="38.99" shape="-478.43,-8758.67 -474.40,-8748.42 -469.96,-8739.03 -465.80,-8730.53 -462.66,-8722.95"/>
        <lane id=":63069007_8_1" index="1" speed="24.59" length="38.99" shape="-481.41,-8757.51 -477.40,-8747.28 -472.97,-8737.94 -468.83,-8729.49 -465.69,-8721.93"/>
    </edge>
    <edge id=":63069007_10" function="internal">
        <lane id=":63069007_10_0" index="0" speed="12.92" length="38.96" shape="-484.40,-8756.34 -482.85,-8746.60 -485.30,-8738.49 -491.73,-8732.00 -502.14,-8727.15"/>
    </edge>
    <edge id=":63069007_11" function="internal">
        <lane id=":63069007_11_0" index="0" speed="15.65" length="45.55" shape="-505.35,-8737.01 -463.62,-8755.23"/>
        <lane id=":63069007_11_1" index="1" speed="15.65" length="45.55" shape="-504.36,-8733.97 -462.60,-8752.19"/>
    </edge>
    <edge id=":63069007_13" function="internal">
        <lane id=":63069007_13_0" index="0" speed="13.64" length="19.84" shape="-503.37,-8730.92 -489.41,-8734.45 -483.97,-8734.29"/>
    </edge>
    <edge id=":63069007_15" function="internal">
        <lane id=":63069007_15_0" index="0" speed="13.64" length="23.83" shape="-483.97,-8734.29 -478.47,-8734.13 -470.57,-8729.96 -465.69,-8721.93"/>
    </edge>
    <edge id=":63069008_0" function="internal">
        <lane id=":63069008_0_0" index="0" speed="10.33" length="21.99" shape="-608.73,-9083.49 -611.16,-9091.60 -613.73,-9097.30 -616.46,-9100.57 -619.34,-9101.42"/>
    </edge>
    <edge id=":63069008_1" function="internal">
        <lane id=":63069008_1_0" index="0" speed="24.59" length="32.81" shape="-608.73,-9083.49 -615.93,-9115.65"/>
        <lane id=":63069008_1_1" index="1" speed="24.59" length="32.81" shape="-605.64,-9084.32 -612.81,-9116.34"/>
        <lane id=":63069008_1_2" index="2" speed="24.59" length="32.81" shape="-602.55,-9085.15 -609.69,-9117.03"/>
    </edge>
    <edge id=":63069008_4" function="internal">
        <lane id=":63069008_4_0" index="0" speed="12.96" length="41.68" shape="-599.46,-9085.99 -600.38,-9097.14 -596.57,-9104.51 -588.31,-9109.10 -575.88,-9111.90"/>
    </edge>
    <edge id=":63069008_5" function="internal">
        <lane id=":63069008_5_0" index="0" speed="15.65" length="44.65" shape="-574.87,-9105.43 -619.34,-9101.42"/>
    </edge>
    <edge id=":63069008_6" function="internal">
        <lane id=":63069008_6_0" index="0" speed="13.19" length="24.38" shape="-575.36,-9108.59 -589.28,-9107.32 -599.64,-9108.31"/>
    </edge>
    <edge id=":63069008_15" function="internal">
        <lane id=":63069008_15_0" index="0" speed="13.19" length="13.91" shape="-599.64,-9108.31 -606.44,-9111.55 -609.69,-9117.03"/>
    </edge>
    <edge id=":63069008_7" function="internal">
        <lane id=":63069008_7_0" index="0" speed="8.67" length="16.47" shape="-586.27,-9122.23 -584.81,-9117.23 -582.59,-9113.85 -579.61,-9112.07 -575.88,-9111.90"/>
    </edge>
    <edge id=":63069008_8" function="internal">
        <lane id=":63069008_8_0" index="0" speed="24.59" length="31.71" shape="-586.27,-9122.23 -578.58,-9091.62"/>
        <lane id=":63069008_8_1" index="1" speed="24.59" length="31.71" shape="-589.40,-9121.54 -581.67,-9090.79"/>
        <lane id=":63069008_8_2" index="2" speed="24.59" length="31.71" shape="-592.52,-9120.85 -584.76,-9089.96"/>
    </edge>
    <edge id=":63069008_11" function="internal">
        <lane id=":63069008_11_0" index="0" speed="11.89" length="34.20" shape="-595.65,-9120.15 -596.04,-9113.16 -600.12,-9107.71 -607.89,-9103.80 -619.34,-9101.42"/>
    </edge>
    <edge id=":63069008_12" function="internal">
        <lane id=":63069008_12_0" index="0" speed="6.59" length="9.96" shape="-620.16,-9108.19 -617.75,-9108.93 -616.24,-9110.42 -615.64,-9112.66 -615.93,-9115.65"/>
    </edge>
    <edge id=":63069008_13" function="internal">
        <lane id=":63069008_13_0" index="0" speed="15.65" length="44.44" shape="-620.16,-9108.19 -575.88,-9111.90"/>
    </edge>
    <edge id=":63069008_14" function="internal">
        <lane id=":63069008_14_0" index="0" speed="14.18" length="17.59" shape="-619.78,-9105.02 -606.36,-9105.49 -602.30,-9104.56"/>
    </edge>
    <edge id=":63069008_16" function="internal">
        <lane id=":63069008_16_0" index="0" speed="14.18" length="24.27" shape="-602.30,-9104.56 -596.06,-9103.14 -588.85,-9097.96 -584.76,-9089.96"/>
    </edge>
    <edge id=":63069009_0" function="internal">
        <lane id=":63069009_0_0" index="0" speed="24.59" length="33.33" shape="-700.28,-9665.99 -703.52,-9699.32"/>
        <lane id=":63069009_0_1" index="1" speed="24.59" length="33.33" shape="-697.09,-9666.22 -700.32,-9699.39"/>
        <lane id=":63069009_0_2" index="2" speed="24.59" length="33.33" shape="-693.89,-9666.45 -697.12,-9699.46"/>
    </edge>
    <edge id=":63069009_3" function="internal">
        <lane id=":63069009_3_0" index="0" speed="24.59" length="32.20" shape="-676.05,-9699.93 -672.17,-9668.05"/>
        <lane id=":63069009_3_1" index="1" speed="24.59" length="32.20" shape="-679.25,-9699.86 -675.37,-9667.81"/>
    </edge>
    <edge id=":63069009_5" function="internal">
        <lane id=":63069009_5_0" index="0" speed="13.55" length="42.81" shape="-682.45,-9699.79 -683.89,-9689.86 -689.26,-9682.60 -698.56,-9677.99 -711.78,-9676.04"/>
    </edge>
    <edge id=":63069009_6" function="internal">
        <lane id=":63069009_6_0" index="0" speed="14.45" length="47.65" shape="-712.14,-9684.89 -695.17,-9684.51 -682.85,-9681.57 -675.18,-9676.09 -672.17,-9668.05"/>
    </edge>
    <edge id=":63069009_7" function="internal">
        <lane id=":63069009_7_0" index="0" speed="13.70" length="42.74" shape="-712.01,-9681.69 -696.41,-9681.44 -685.10,-9679.05 -678.08,-9674.50 -675.37,-9667.81"/>
    </edge>
    <edge id=":cluster_1039765911_5021341467_0" function="internal">
        <lane id=":cluster_1039765911_5021341467_0_0" index="0" disallow="tram rail_urban rail rail_electric rail_fast ship" speed="18.06" length="16.40" shape="1378.19,926.36 1363.20,919.73"/>
    </edge>
    <edge id=":cluster_1039765911_5021341467_1" function="internal">
        <lane id=":cluster_1039765911_5021341467_1_0" index="0" disallow="tram rail_urban rail rail_electric rail_fast ship" speed="3.69" length="4.83" shape="1378.19,926.36 1377.38,925.11 1377.33,924.18 1378.04,923.59 1379.50,923.32"/>
    </edge>
    <edge id=":cluster_1039765911_5021341467_2" function="internal">
        <lane id=":cluster_1039765911_5021341467_2_0" index="0" disallow="tram rail_urban rail rail_electric rail_fast ship" speed="18.06" length="16.42" shape="1364.53,916.57 1379.50,923.32"/>
    </edge>
    <edge id=":cluster_1438058589_4997522584_0" function="internal">
        <lane id=":cluster_1438058589_4997522584_0_0" index="0" disallow="tram rail_urban rail rail_electric rail_fast ship" speed="22.22" length="0.28" shape="1302.19,645.97 1302.07,646.26"/>
        <lane id=":cluster_1438058589_4997522584_0_1" index="1" disallow="tram rail_urban rail rail_electric rail_fast ship" speed="22.22" length="0.28" shape="1299.20,644.83 1299.10,645.07"/>
    </edge>
    <edge id=":cluster_1438058594_4997522585_0" function="internal">
        <lane id=":cluster_1438058594_4997522585_0_0" index="0" allow="pedestrian delivery bicycle" speed="6.00" length="7.33" shape="1290.76,688.72 1288.31,688.01 1286.40,687.90 1285.02,688.40 1284.17,689.50"/>
    </edge>
    <edge id=":cluster_1438058594_4997522585_1" function="internal">
        <lane id=":cluster_1438058594_4997522585_1_0" index="0" allow="pedestrian delivery bicycle" speed="3.65" length="4.67" shape="1290.76,688.72 1289.92,687.55 1289.82,686.66 1290.48,686.05 1291.88,685.72"/>
    </edge>
    <edge id=":cluster_1438058594_4997522585_2" function="internal">
        <lane id=":cluster_1438058594_4997522585_2_0" index="0" allow="pedestrian delivery bicycle" speed="5.81" length="7.18" shape="1287.78,680.81 1287.58,682.22 1288.19,683.50 1289.63,684.67 1291.88,685.72"/>
    </edge>
    <edge id=":cluster_1438058594_4997522585_3" function="internal">
        <lane id=":cluster_1438058594_4997522585_3_0" index="0" disallow="tram rail_urban rail rail_electric rail_fast ship" speed="22.22" length="9.44" shape="1287.78,680.81 1284.17,689.50"/>
        <lane id=":cluster_1438058594_4997522585_3_1" index="1" disallow="tram rail_urban rail rail_electric rail_fast ship" speed="22.22" length="9.44" shape="1284.82,679.58 1281.19,688.34"/>
    </edge>
    <edge id=":cluster_5821898542_5821898543_0" function="internal">
        <lane id=":cluster_5821898542_5821898543_0_0" index="0" allow="pedestrian delivery bicycle" speed="7.16" length="11.07" shape="1245.20,807.56 1241.81,806.56 1239.08,806.58 1237.01,807.62 1235.60,809.68"/>
    </edge>
    <edge id=":cluster_5821898542_5821898543_1" function="internal">
        <lane id=":cluster_5821898542_5821898543_1_0" index="0" allow="pedestrian delivery bicycle" speed="3.65" length="4.67" shape="1245.20,807.56 1244.38,806.37 1244.31,805.48 1244.98,804.88 1246.40,804.59"/>
    </edge>
    <edge id=":cluster_5821898542_5821898543_2" function="internal">
        <lane id=":cluster_5821898542_5821898543_2_0" index="0" allow="pedestrian delivery bicycle" speed="7.38" length="11.98" shape="1240.13,795.97 1239.71,798.47 1240.62,800.73 1242.84,802.78 1246.40,804.59"/>
    </edge>
    <edge id=":cluster_5821898542_5821898543_3" function="internal">
        <lane id=":cluster_5821898542_5821898543_3_0" index="0" disallow="tram rail_urban rail rail_electric rail_fast ship" speed="22.22" length="14.48" shape="1240.13,795.97 1235.60,809.68"/>
        <lane id=":cluster_5821898542_5821898543_3_1" index="1" disallow="tram rail_urban rail rail_electric rail_fast ship" speed="22.22" length="14.48" shape="1237.17,794.75 1232.65,808.45"/>
        <lane id=":cluster_5821898542_5821898543_3_2" index="2" disallow="tram rail_urban rail rail_electric rail_fast ship" speed="22.22" length="14.48" shape="1237.17,794.75 1235.23,798.59 1233.44,800.99 1231.66,803.39 1229.70,807.22"/>
    </edge>
    <edge id=":gneJ10_0" function="internal">
        <lane id=":gneJ10_0_0" index="0" speed="24.59" length="8.38" shape="-602.50,-9195.77 -601.69,-9193.45 -600.58,-9192.06 -599.46,-9190.67 -598.64,-9188.36"/>
        <lane id=":gneJ10_0_1" index="1" speed="24.59" length="8.38" shape="-605.65,-9195.19 -604.84,-9192.88 -603.73,-9191.48 -602.61,-9190.09 -601.79,-9187.78"/>
        <lane id=":gneJ10_0_2" index="2" speed="24.59" length="8.38" shape="-608.80,-9194.62 -607.99,-9192.30 -606.87,-9190.90 -605.75,-9189.51 -604.93,-9187.19"/>
        <lane id=":gneJ10_0_3" index="3" speed="24.59" length="8.38" shape="-608.80,-9194.62 -608.49,-9192.25 -608.45,-9190.61 -608.40,-9188.96 -608.08,-9186.60"/>
    </edge>
    <edge id=":gneJ103_0" function="internal">
        <lane id=":gneJ103_0_0" index="0" speed="20.12" length="8.04" shape="-573.00,-9079.70 -573.13,-9077.31 -573.40,-9075.66 -573.47,-9074.03 -573.00,-9071.73"/>
    </edge>
    <edge id=":gneJ103_1" function="internal">
        <lane id=":gneJ103_1_0" index="0" speed="24.59" length="7.80" shape="-575.20,-9079.11 -573.00,-9071.73"/>
        <lane id=":gneJ103_1_1" index="1" speed="24.59" length="7.80" shape="-578.30,-9078.29 -576.07,-9070.82"/>
        <lane id=":gneJ103_1_2" index="2" speed="24.59" length="7.80" shape="-581.39,-9077.47 -579.14,-9069.90"/>
    </edge>
    <edge id=":gneJ104_0" function="internal">
        <lane id=":gneJ104_0_0" index="0" speed="15.65" length="0.26" shape="-648.78,-9097.87 -649.03,-9097.84"/>
    </edge>
    <edge id=":gneJ109_0" function="internal">
        <lane id=":gneJ109_0_0" index="0" speed="24.59" length="8.09" shape="-668.10,-9612.50 -667.68,-9610.21 -667.00,-9608.72 -666.28,-9607.23 -665.75,-9604.95"/>
        <lane id=":gneJ109_0_1" index="1" speed="24.59" length="8.09" shape="-671.29,-9612.27 -670.87,-9609.93 -670.18,-9608.40 -669.46,-9606.88 -668.92,-9604.56"/>
        <lane id=":gneJ109_0_2" index="2" speed="24.59" length="8.09" shape="-671.29,-9612.27 -671.36,-9609.85 -671.77,-9608.21 -672.14,-9606.56 -672.10,-9604.16"/>
    </edge>
    <edge id=":gneJ117_0" function="internal">
        <lane id=":gneJ117_0_0" index="0" speed="15.65" length="14.14" shape="-503.38,-9115.50 -507.71,-9114.47 -510.82,-9113.16 -513.54,-9111.90 -516.72,-9110.97"/>
    </edge>
    <edge id=":gneJ117_1" function="internal">
        <lane id=":gneJ117_1_0" index="0" speed="15.65" length="13.99" shape="-503.38,-9115.50 -517.29,-9114.19"/>
        <lane id=":gneJ117_1_1" index="1" speed="15.65" length="13.99" shape="-503.89,-9118.66 -517.84,-9117.35"/>
    </edge>
    <edge id=":gneJ117_3" function="internal">
        <lane id=":gneJ117_3_0" index="0" speed="15.65" length="14.04" shape="-518.45,-9120.82 -504.49,-9122.42"/>
    </edge>
    <edge id=":gneJ12_0" function="internal">
        <lane id=":gneJ12_0_0" index="0" speed="24.59" length="8.19" shape="-499.08,-8824.20 -497.91,-8821.98 -496.45,-8820.79 -495.00,-8819.61 -493.84,-8817.38"/>
        <lane id=":gneJ12_0_1" index="1" speed="24.59" length="8.19" shape="-499.08,-8824.20 -496.92,-8816.48"/>
        <lane id=":gneJ12_0_2" index="2" speed="24.59" length="8.19" shape="-502.15,-8823.28 -499.99,-8815.59"/>
        <lane id=":gneJ12_0_3" index="3" speed="24.59" length="8.19" shape="-505.22,-8822.37 -503.06,-8814.70"/>
    </edge>
    <edge id=":gneJ122_0" function="internal">
        <lane id=":gneJ122_0_0" index="0" speed="24.59" length="16.77" shape="-698.41,-9606.64 -699.17,-9612.01 -700.31,-9616.06 -701.41,-9619.49 -702.04,-9622.97"/>
    </edge>
    <edge id=":gneJ122_1" function="internal">
        <lane id=":gneJ122_1_0" index="0" speed="24.59" length="16.59" shape="-698.41,-9606.64 -698.35,-9623.22"/>
        <lane id=":gneJ122_1_1" index="1" speed="24.59" length="16.59" shape="-695.22,-9606.86 -695.16,-9623.45"/>
        <lane id=":gneJ122_1_2" index="2" speed="24.59" length="16.59" shape="-692.03,-9607.08 -691.96,-9623.67"/>
    </edge>
    <edge id=":gneJ14_0" function="internal">
        <lane id=":gneJ14_0_0" index="0" speed="24.59" length="8.60" shape="-277.92,-8249.14 -276.57,-8247.02 -274.99,-8245.97 -273.42,-8244.93 -272.07,-8242.80"/>
        <lane id=":gneJ14_0_1" index="1" speed="24.59" length="8.60" shape="-280.91,-8248.00 -279.56,-8245.88 -277.98,-8244.83 -276.41,-8243.79 -275.06,-8241.66"/>
        <lane id=":gneJ14_0_2" index="2" speed="24.59" length="8.60" shape="-283.89,-8246.85 -282.55,-8244.73 -280.97,-8243.69 -279.40,-8242.65 -278.05,-8240.52"/>
        <lane id=":gneJ14_0_3" index="3" speed="24.59" length="8.60" shape="-283.89,-8246.85 -281.04,-8239.39"/>
    </edge>
    <edge id=":gneJ2_0" function="internal">
        <lane id=":gneJ2_0_0" index="0" allow="bus" speed="11.18" length="18.54" shape="1162.72,943.22 1169.32,925.96"/>
        <lane id=":gneJ2_0_1" index="1" disallow="tram rail_urban rail rail_electric rail_fast ship" speed="11.18" length="18.54" shape="1165.70,944.38 1172.28,927.17"/>
        <lane id=":gneJ2_0_2" index="2" disallow="tram rail_urban rail rail_electric rail_fast ship" speed="11.18" length="18.54" shape="1165.70,944.38 1168.12,939.43 1170.41,936.36 1172.74,933.30 1175.24,928.38"/>
    </edge>
    <edge id=":gneJ23_0" function="internal">
        <lane id=":gneJ23_0_0" index="0" speed="24.59" length="8.20" shape="-232.43,-8064.30 -233.57,-8066.40 -234.69,-8067.65 -235.82,-8068.89 -236.99,-8070.98"/>
        <lane id=":gneJ23_0_1" index="1" speed="24.59" length="8.20" shape="-229.47,-8065.53 -230.62,-8067.64 -231.74,-8068.90 -232.88,-8070.15 -234.06,-8072.25"/>
        <lane id=":gneJ23_0_2" index="2" speed="24.59" length="8.20" shape="-226.51,-8066.76 -227.67,-8068.88 -228.79,-8070.15 -229.93,-8071.41 -231.12,-8073.52"/>
        <lane id=":gneJ23_0_3" index="3" speed="24.59" length="8.20" shape="-226.51,-8066.76 -227.21,-8069.08 -227.33,-8070.78 -227.46,-8072.48 -228.18,-8074.79"/>
    </edge>
    <edge id=":gneJ25_0" function="internal">